/*---------------------------------------------------------------------------*\
| =========                 |                                                 |
| \\      /  F ield         | OpenFOAM: The Open Source CFD Toolbox           |
|  \\    /   O peration     | Version:  dev                                   |
|   \\  /    A nd           | Web:      www.OpenFOAM.org                      |
|    \\/     M anipulation  |                                                 |
\*---------------------------------------------------------------------------*/
Build  : dev-90f39e0d894d
Exec   : scalarDeformationWithGhosts explicit -case orthogonal/240x120/c05_explicit
Date   : May 23 2017
Time   : 20:31:06
Host   : "sws02hw.private.rdg.ac.uk"
PID    : 22880
Case   : orthogonal/240x120/c05_explicit
nProcs : 1
sigFpe : Enabling floating point exception trapping (FOAM_SIGFPE).
fileModificationChecking : Monitoring run-time modified files using timeStampMaster (fileModificationSkew 10)
allowSystemOperations : Allowing user-supplied system call operations

// * * * * * * * * * * * * * * * * * * * * * * * * * * * * * * * * * * * * * //
Create time

Create mesh for time = 0

Reading field T

Reading fields phi (compulsory), U and Uf (optional)

Calculating owner stencils
Calculating neighbour stencils

Calculating scalar transport

Courant Number mean: 0.187268 max: 0.367985
Time = 0.0025
Courant Number mean: 0.187267 max: 0.367995
diagonal:  Solving for T, Initial residual = 0, Final residual = 0, No Iterations 0
diagonal:  Solving for T, Initial residual = 0, Final residual = 0, No Iterations 0
diagonal:  Solving for T, Initial residual = 0, Final residual = 0, No Iterations 0
diagonal:  Solving for T, Initial residual = 0, Final residual = 0, No Iterations 0
 T goes from min(T) [0 0 0 0 0 0 0] 8.94266e-21 to max(T) [0 0 0 0 0 0 0] 0.953537

ExecutionTime = 7.78 s  ClockTime = 97 s

Time = 0.005
Courant Number mean: 0.187263 max: 0.367998
diagonal:  Solving for T, Initial residual = 0, Final residual = 0, No Iterations 0
diagonal:  Solving for T, Initial residual = 0, Final residual = 0, No Iterations 0
diagonal:  Solving for T, Initial residual = 0, Final residual = 0, No Iterations 0
diagonal:  Solving for T, Initial residual = 0, Final residual = 0, No Iterations 0
 T goes from min(T) [0 0 0 0 0 0 0] 8.60164e-21 to max(T) [0 0 0 0 0 0 0] 0.953919

ExecutionTime = 8.26 s  ClockTime = 107 s

Time = 0.0075
Courant Number mean: 0.187256 max: 0.367994
diagonal:  Solving for T, Initial residual = 0, Final residual = 0, No Iterations 0
diagonal:  Solving for T, Initial residual = 0, Final residual = 0, No Iterations 0
diagonal:  Solving for T, Initial residual = 0, Final residual = 0, No Iterations 0
diagonal:  Solving for T, Initial residual = 0, Final residual = 0, No Iterations 0
 T goes from min(T) [0 0 0 0 0 0 0] 8.39564e-21 to max(T) [0 0 0 0 0 0 0] 0.954037

ExecutionTime = 8.75 s  ClockTime = 117 s

Time = 0.01
Courant Number mean: 0.187247 max: 0.367982
diagonal:  Solving for T, Initial residual = 0, Final residual = 0, No Iterations 0
diagonal:  Solving for T, Initial residual = 0, Final residual = 0, No Iterations 0
diagonal:  Solving for T, Initial residual = 0, Final residual = 0, No Iterations 0
diagonal:  Solving for T, Initial residual = 0, Final residual = 0, No Iterations 0
 T goes from min(T) [0 0 0 0 0 0 0] 8.32061e-21 to max(T) [0 0 0 0 0 0 0] 0.953884

ExecutionTime = 9.27 s  ClockTime = 128 s

Time = 0.0125
Courant Number mean: 0.187252 max: 0.367986
diagonal:  Solving for T, Initial residual = 0, Final residual = 0, No Iterations 0
diagonal:  Solving for T, Initial residual = 0, Final residual = 0, No Iterations 0
diagonal:  Solving for T, Initial residual = 0, Final residual = 0, No Iterations 0
diagonal:  Solving for T, Initial residual = 0, Final residual = 0, No Iterations 0
 T goes from min(T) [0 0 0 0 0 0 0] 8.37266e-21 to max(T) [0 0 0 0 0 0 0] 0.953688

ExecutionTime = 9.8 s  ClockTime = 139 s

Time = 0.015
Courant Number mean: 0.187258 max: 0.367988
diagonal:  Solving for T, Initial residual = 0, Final residual = 0, No Iterations 0
diagonal:  Solving for T, Initial residual = 0, Final residual = 0, No Iterations 0
diagonal:  Solving for T, Initial residual = 0, Final residual = 0, No Iterations 0
diagonal:  Solving for T, Initial residual = 0, Final residual = 0, No Iterations 0
 T goes from min(T) [0 0 0 0 0 0 0] 8.54813e-21 to max(T) [0 0 0 0 0 0 0] 0.953274

ExecutionTime = 10.28 s  ClockTime = 148 s

Time = 0.0175
Courant Number mean: 0.187261 max: 0.367982
diagonal:  Solving for T, Initial residual = 0, Final residual = 0, No Iterations 0
diagonal:  Solving for T, Initial residual = 0, Final residual = 0, No Iterations 0
diagonal:  Solving for T, Initial residual = 0, Final residual = 0, No Iterations 0
diagonal:  Solving for T, Initial residual = 0, Final residual = 0, No Iterations 0
 T goes from min(T) [0 0 0 0 0 0 0] 8.84368e-21 to max(T) [0 0 0 0 0 0 0] 0.95353

ExecutionTime = 10.8 s  ClockTime = 160 s

Time = 0.02
Courant Number mean: 0.187261 max: 0.367969
diagonal:  Solving for T, Initial residual = 0, Final residual = 0, No Iterations 0
diagonal:  Solving for T, Initial residual = 0, Final residual = 0, No Iterations 0
diagonal:  Solving for T, Initial residual = 0, Final residual = 0, No Iterations 0
diagonal:  Solving for T, Initial residual = 0, Final residual = 0, No Iterations 0
 T goes from min(T) [0 0 0 0 0 0 0] 9.25638e-21 to max(T) [0 0 0 0 0 0 0] 0.953638

ExecutionTime = 11.31 s  ClockTime = 172 s

Time = 0.0225
Courant Number mean: 0.187259 max: 0.367968
diagonal:  Solving for T, Initial residual = 0, Final residual = 0, No Iterations 0
diagonal:  Solving for T, Initial residual = 0, Final residual = 0, No Iterations 0
diagonal:  Solving for T, Initial residual = 0, Final residual = 0, No Iterations 0
diagonal:  Solving for T, Initial residual = 0, Final residual = 0, No Iterations 0
 T goes from min(T) [0 0 0 0 0 0 0] 9.29132e-21 to max(T) [0 0 0 0 0 0 0] 0.953815

ExecutionTime = 11.81 s  ClockTime = 181 s

Time = 0.025
Courant Number mean: 0.187254 max: 0.367968
diagonal:  Solving for T, Initial residual = 0, Final residual = 0, No Iterations 0
diagonal:  Solving for T, Initial residual = 0, Final residual = 0, No Iterations 0
diagonal:  Solving for T, Initial residual = 0, Final residual = 0, No Iterations 0
diagonal:  Solving for T, Initial residual = 0, Final residual = 0, No Iterations 0
 T goes from min(T) [0 0 0 0 0 0 0] 8.90807e-21 to max(T) [0 0 0 0 0 0 0] 0.95391

ExecutionTime = 12.3 s  ClockTime = 191 s

Time = 0.0275
Courant Number mean: 0.187246 max: 0.367961
diagonal:  Solving for T, Initial residual = 0, Final residual = 0, No Iterations 0
diagonal:  Solving for T, Initial residual = 0, Final residual = 0, No Iterations 0
diagonal:  Solving for T, Initial residual = 0, Final residual = 0, No Iterations 0
diagonal:  Solving for T, Initial residual = 0, Final residual = 0, No Iterations 0
 T goes from min(T) [0 0 0 0 0 0 0] 8.64911e-21 to max(T) [0 0 0 0 0 0 0] 0.953727

ExecutionTime = 12.8 s  ClockTime = 200 s

Time = 0.03
Courant Number mean: 0.187236 max: 0.367947
diagonal:  Solving for T, Initial residual = 0, Final residual = 0, No Iterations 0
diagonal:  Solving for T, Initial residual = 0, Final residual = 0, No Iterations 0
diagonal:  Solving for T, Initial residual = 0, Final residual = 0, No Iterations 0
diagonal:  Solving for T, Initial residual = 0, Final residual = 0, No Iterations 0
 T goes from min(T) [0 0 0 0 0 0 0] 8.51253e-21 to max(T) [0 0 0 0 0 0 0] 0.953261

ExecutionTime = 13.3 s  ClockTime = 210 s

Time = 0.0325
Courant Number mean: 0.187233 max: 0.367939
diagonal:  Solving for T, Initial residual = 0, Final residual = 0, No Iterations 0
diagonal:  Solving for T, Initial residual = 0, Final residual = 0, No Iterations 0
diagonal:  Solving for T, Initial residual = 0, Final residual = 0, No Iterations 0
diagonal:  Solving for T, Initial residual = 0, Final residual = 0, No Iterations 0
 T goes from min(T) [0 0 0 0 0 0 0] 8.49639e-21 to max(T) [0 0 0 0 0 0 0] 0.953612

ExecutionTime = 13.83 s  ClockTime = 220 s

Time = 0.035
Courant Number mean: 0.187238 max: 0.367938
diagonal:  Solving for T, Initial residual = 0, Final residual = 0, No Iterations 0
diagonal:  Solving for T, Initial residual = 0, Final residual = 0, No Iterations 0
diagonal:  Solving for T, Initial residual = 0, Final residual = 0, No Iterations 0
diagonal:  Solving for T, Initial residual = 0, Final residual = 0, No Iterations 0
 T goes from min(T) [0 0 0 0 0 0 0] 8.59881e-21 to max(T) [0 0 0 0 0 0 0] 0.953909

ExecutionTime = 14.32 s  ClockTime = 229 s

Time = 0.0375
Courant Number mean: 0.18724 max: 0.367929
diagonal:  Solving for T, Initial residual = 0, Final residual = 0, No Iterations 0
diagonal:  Solving for T, Initial residual = 0, Final residual = 0, No Iterations 0
diagonal:  Solving for T, Initial residual = 0, Final residual = 0, No Iterations 0
diagonal:  Solving for T, Initial residual = 0, Final residual = 0, No Iterations 0
 T goes from min(T) [0 0 0 0 0 0 0] 8.81801e-21 to max(T) [0 0 0 0 0 0 0] 0.953957

ExecutionTime = 14.79 s  ClockTime = 238 s

Time = 0.04
Courant Number mean: 0.187239 max: 0.367914
diagonal:  Solving for T, Initial residual = 0, Final residual = 0, No Iterations 0
diagonal:  Solving for T, Initial residual = 0, Final residual = 0, No Iterations 0
diagonal:  Solving for T, Initial residual = 0, Final residual = 0, No Iterations 0
diagonal:  Solving for T, Initial residual = 0, Final residual = 0, No Iterations 0
 T goes from min(T) [0 0 0 0 0 0 0] 9.15242e-21 to max(T) [0 0 0 0 0 0 0] 0.953761

ExecutionTime = 15.28 s  ClockTime = 246 s

Time = 0.0425
Courant Number mean: 0.187236 max: 0.3679
diagonal:  Solving for T, Initial residual = 0, Final residual = 0, No Iterations 0
diagonal:  Solving for T, Initial residual = 0, Final residual = 0, No Iterations 0
diagonal:  Solving for T, Initial residual = 0, Final residual = 0, No Iterations 0
diagonal:  Solving for T, Initial residual = 0, Final residual = 0, No Iterations 0
 T goes from min(T) [0 0 0 0 0 0 0] 9.44406e-21 to max(T) [0 0 0 0 0 0 0] 0.953461

ExecutionTime = 15.77 s  ClockTime = 255 s

Time = 0.045
Courant Number mean: 0.18723 max: 0.367898
diagonal:  Solving for T, Initial residual = 0, Final residual = 0, No Iterations 0
diagonal:  Solving for T, Initial residual = 0, Final residual = 0, No Iterations 0
diagonal:  Solving for T, Initial residual = 0, Final residual = 0, No Iterations 0
diagonal:  Solving for T, Initial residual = 0, Final residual = 0, No Iterations 0
 T goes from min(T) [0 0 0 0 0 0 0] 9.03766e-21 to max(T) [0 0 0 0 0 0 0] 0.95327

ExecutionTime = 16.29 s  ClockTime = 264 s

Time = 0.0475
Courant Number mean: 0.187221 max: 0.367888
diagonal:  Solving for T, Initial residual = 0, Final residual = 0, No Iterations 0
diagonal:  Solving for T, Initial residual = 0, Final residual = 0, No Iterations 0
diagonal:  Solving for T, Initial residual = 0, Final residual = 0, No Iterations 0
diagonal:  Solving for T, Initial residual = 0, Final residual = 0, No Iterations 0
 T goes from min(T) [0 0 0 0 0 0 0] 8.74852e-21 to max(T) [0 0 0 0 0 0 0] 0.953453

ExecutionTime = 16.73 s  ClockTime = 271 s

Time = 0.05
Courant Number mean: 0.18721 max: 0.367872
diagonal:  Solving for T, Initial residual = 0, Final residual = 0, No Iterations 0
diagonal:  Solving for T, Initial residual = 0, Final residual = 0, No Iterations 0
diagonal:  Solving for T, Initial residual = 0, Final residual = 0, No Iterations 0
diagonal:  Solving for T, Initial residual = 0, Final residual = 0, No Iterations 0
 T goes from min(T) [0 0 0 0 0 0 0] 8.57536e-21 to max(T) [0 0 0 0 0 0 0] 0.953868

ExecutionTime = 17.19 s  ClockTime = 279 s

Time = 0.0525
Courant Number mean: 0.1872 max: 0.367852
diagonal:  Solving for T, Initial residual = 0, Final residual = 0, No Iterations 0
diagonal:  Solving for T, Initial residual = 0, Final residual = 0, No Iterations 0
diagonal:  Solving for T, Initial residual = 0, Final residual = 0, No Iterations 0
diagonal:  Solving for T, Initial residual = 0, Final residual = 0, No Iterations 0
 T goes from min(T) [0 0 0 0 0 0 0] 8.51694e-21 to max(T) [0 0 0 0 0 0 0] 0.954043

ExecutionTime = 17.67 s  ClockTime = 287 s

Time = 0.055
Courant Number mean: 0.187203 max: 0.367848
diagonal:  Solving for T, Initial residual = 0, Final residual = 0, No Iterations 0
diagonal:  Solving for T, Initial residual = 0, Final residual = 0, No Iterations 0
diagonal:  Solving for T, Initial residual = 0, Final residual = 0, No Iterations 0
diagonal:  Solving for T, Initial residual = 0, Final residual = 0, No Iterations 0
 T goes from min(T) [0 0 0 0 0 0 0] 8.57212e-21 to max(T) [0 0 0 0 0 0 0] 0.954022

ExecutionTime = 18.17 s  ClockTime = 296 s

Time = 0.0575
Courant Number mean: 0.187205 max: 0.367837
diagonal:  Solving for T, Initial residual = 0, Final residual = 0, No Iterations 0
diagonal:  Solving for T, Initial residual = 0, Final residual = 0, No Iterations 0
diagonal:  Solving for T, Initial residual = 0, Final residual = 0, No Iterations 0
diagonal:  Solving for T, Initial residual = 0, Final residual = 0, No Iterations 0
 T goes from min(T) [0 0 0 0 0 0 0] 8.73989e-21 to max(T) [0 0 0 0 0 0 0] 0.953765

ExecutionTime = 18.7 s  ClockTime = 305 s

Time = 0.06
Courant Number mean: 0.187203 max: 0.367819
diagonal:  Solving for T, Initial residual = 0, Final residual = 0, No Iterations 0
diagonal:  Solving for T, Initial residual = 0, Final residual = 0, No Iterations 0
diagonal:  Solving for T, Initial residual = 0, Final residual = 0, No Iterations 0
diagonal:  Solving for T, Initial residual = 0, Final residual = 0, No Iterations 0
 T goes from min(T) [0 0 0 0 0 0 0] 9.01941e-21 to max(T) [0 0 0 0 0 0 0] 0.953278

ExecutionTime = 19.2 s  ClockTime = 313 s

Time = 0.0625
Courant Number mean: 0.187198 max: 0.367793
diagonal:  Solving for T, Initial residual = 0, Final residual = 0, No Iterations 0
diagonal:  Solving for T, Initial residual = 0, Final residual = 0, No Iterations 0
diagonal:  Solving for T, Initial residual = 0, Final residual = 0, No Iterations 0
diagonal:  Solving for T, Initial residual = 0, Final residual = 0, No Iterations 0
 T goes from min(T) [0 0 0 0 0 0 0] 9.41008e-21 to max(T) [0 0 0 0 0 0 0] 0.952841

ExecutionTime = 19.67 s  ClockTime = 321 s

Time = 0.065
Courant Number mean: 0.187192 max: 0.367788
diagonal:  Solving for T, Initial residual = 0, Final residual = 0, No Iterations 0
diagonal:  Solving for T, Initial residual = 0, Final residual = 0, No Iterations 0
diagonal:  Solving for T, Initial residual = 0, Final residual = 0, No Iterations 0
diagonal:  Solving for T, Initial residual = 0, Final residual = 0, No Iterations 0
 T goes from min(T) [0 0 0 0 0 0 0] 9.13588e-21 to max(T) [0 0 0 0 0 0 0] 0.95345

ExecutionTime = 20.14 s  ClockTime = 329 s

Time = 0.0675
Courant Number mean: 0.187182 max: 0.367776
diagonal:  Solving for T, Initial residual = 0, Final residual = 0, No Iterations 0
diagonal:  Solving for T, Initial residual = 0, Final residual = 0, No Iterations 0
diagonal:  Solving for T, Initial residual = 0, Final residual = 0, No Iterations 0
diagonal:  Solving for T, Initial residual = 0, Final residual = 0, No Iterations 0
 T goes from min(T) [0 0 0 0 0 0 0] 8.81702e-21 to max(T) [0 0 0 0 0 0 0] 0.953819

ExecutionTime = 20.63 s  ClockTime = 337 s

Time = 0.07
Courant Number mean: 0.18717 max: 0.367756
diagonal:  Solving for T, Initial residual = 0, Final residual = 0, No Iterations 0
diagonal:  Solving for T, Initial residual = 0, Final residual = 0, No Iterations 0
diagonal:  Solving for T, Initial residual = 0, Final residual = 0, No Iterations 0
diagonal:  Solving for T, Initial residual = 0, Final residual = 0, No Iterations 0
 T goes from min(T) [0 0 0 0 0 0 0] 8.61035e-21 to max(T) [0 0 0 0 0 0 0] 0.953968

ExecutionTime = 21.09 s  ClockTime = 345 s

Time = 0.0725
Courant Number mean: 0.187155 max: 0.36773
diagonal:  Solving for T, Initial residual = 0, Final residual = 0, No Iterations 0
diagonal:  Solving for T, Initial residual = 0, Final residual = 0, No Iterations 0
diagonal:  Solving for T, Initial residual = 0, Final residual = 0, No Iterations 0
diagonal:  Solving for T, Initial residual = 0, Final residual = 0, No Iterations 0
 T goes from min(T) [0 0 0 0 0 0 0] 8.51478e-21 to max(T) [0 0 0 0 0 0 0] 0.953854

ExecutionTime = 21.59 s  ClockTime = 354 s

Time = 0.075
Courant Number mean: 0.187154 max: 0.367719
diagonal:  Solving for T, Initial residual = 0, Final residual = 0, No Iterations 0
diagonal:  Solving for T, Initial residual = 0, Final residual = 0, No Iterations 0
diagonal:  Solving for T, Initial residual = 0, Final residual = 0, No Iterations 0
diagonal:  Solving for T, Initial residual = 0, Final residual = 0, No Iterations 0
 T goes from min(T) [0 0 0 0 0 0 0] 8.5294e-21 to max(T) [0 0 0 0 0 0 0] 0.95353

ExecutionTime = 22.07 s  ClockTime = 362 s

Time = 0.0775
Courant Number mean: 0.187155 max: 0.367705
diagonal:  Solving for T, Initial residual = 0, Final residual = 0, No Iterations 0
diagonal:  Solving for T, Initial residual = 0, Final residual = 0, No Iterations 0
diagonal:  Solving for T, Initial residual = 0, Final residual = 0, No Iterations 0
diagonal:  Solving for T, Initial residual = 0, Final residual = 0, No Iterations 0
 T goes from min(T) [0 0 0 0 0 0 0] 8.65347e-21 to max(T) [0 0 0 0 0 0 0] 0.953405

ExecutionTime = 22.56 s  ClockTime = 370 s

Time = 0.08
Courant Number mean: 0.187152 max: 0.367684
diagonal:  Solving for T, Initial residual = 0, Final residual = 0, No Iterations 0
diagonal:  Solving for T, Initial residual = 0, Final residual = 0, No Iterations 0
diagonal:  Solving for T, Initial residual = 0, Final residual = 0, No Iterations 0
diagonal:  Solving for T, Initial residual = 0, Final residual = 0, No Iterations 0
 T goes from min(T) [0 0 0 0 0 0 0] 8.88648e-21 to max(T) [0 0 0 0 0 0 0] 0.953625

ExecutionTime = 23.01 s  ClockTime = 377 s

Time = 0.0825
Courant Number mean: 0.187147 max: 0.367656
diagonal:  Solving for T, Initial residual = 0, Final residual = 0, No Iterations 0
diagonal:  Solving for T, Initial residual = 0, Final residual = 0, No Iterations 0
diagonal:  Solving for T, Initial residual = 0, Final residual = 0, No Iterations 0
diagonal:  Solving for T, Initial residual = 0, Final residual = 0, No Iterations 0
 T goes from min(T) [0 0 0 0 0 0 0] 9.22815e-21 to max(T) [0 0 0 0 0 0 0] 0.953538

ExecutionTime = 23.51 s  ClockTime = 385 s

Time = 0.085
Courant Number mean: 0.187139 max: 0.367639
diagonal:  Solving for T, Initial residual = 0, Final residual = 0, No Iterations 0
diagonal:  Solving for T, Initial residual = 0, Final residual = 0, No Iterations 0
diagonal:  Solving for T, Initial residual = 0, Final residual = 0, No Iterations 0
diagonal:  Solving for T, Initial residual = 0, Final residual = 0, No Iterations 0
 T goes from min(T) [0 0 0 0 0 0 0] 9.22617e-21 to max(T) [0 0 0 0 0 0 0] 0.953621

ExecutionTime = 23.97 s  ClockTime = 393 s

Time = 0.0875
Courant Number mean: 0.187128 max: 0.367624
diagonal:  Solving for T, Initial residual = 0, Final residual = 0, No Iterations 0
diagonal:  Solving for T, Initial residual = 0, Final residual = 0, No Iterations 0
diagonal:  Solving for T, Initial residual = 0, Final residual = 0, No Iterations 0
diagonal:  Solving for T, Initial residual = 0, Final residual = 0, No Iterations 0
 T goes from min(T) [0 0 0 0 0 0 0] 8.87794e-21 to max(T) [0 0 0 0 0 0 0] 0.953663

ExecutionTime = 24.5 s  ClockTime = 402 s

Time = 0.09
Courant Number mean: 0.187115 max: 0.367601
diagonal:  Solving for T, Initial residual = 0, Final residual = 0, No Iterations 0
diagonal:  Solving for T, Initial residual = 0, Final residual = 0, No Iterations 0
diagonal:  Solving for T, Initial residual = 0, Final residual = 0, No Iterations 0
diagonal:  Solving for T, Initial residual = 0, Final residual = 0, No Iterations 0
 T goes from min(T) [0 0 0 0 0 0 0] 8.63931e-21 to max(T) [0 0 0 0 0 0 0] 0.953484

ExecutionTime = 24.95 s  ClockTime = 410 s

Time = 0.0925
Courant Number mean: 0.1871 max: 0.367572
diagonal:  Solving for T, Initial residual = 0, Final residual = 0, No Iterations 0
diagonal:  Solving for T, Initial residual = 0, Final residual = 0, No Iterations 0
diagonal:  Solving for T, Initial residual = 0, Final residual = 0, No Iterations 0
diagonal:  Solving for T, Initial residual = 0, Final residual = 0, No Iterations 0
 T goes from min(T) [0 0 0 0 0 0 0] 8.5092e-21 to max(T) [0 0 0 0 0 0 0] 0.953309

ExecutionTime = 25.41 s  ClockTime = 418 s

Time = 0.095
Courant Number mean: 0.187091 max: 0.367549
diagonal:  Solving for T, Initial residual = 0, Final residual = 0, No Iterations 0
diagonal:  Solving for T, Initial residual = 0, Final residual = 0, No Iterations 0
diagonal:  Solving for T, Initial residual = 0, Final residual = 0, No Iterations 0
diagonal:  Solving for T, Initial residual = 0, Final residual = 0, No Iterations 0
 T goes from min(T) [0 0 0 0 0 0 0] 8.48675e-21 to max(T) [0 0 0 0 0 0 0] 0.953676

ExecutionTime = 25.88 s  ClockTime = 426 s

Time = 0.0975
Courant Number mean: 0.18709 max: 0.367533
diagonal:  Solving for T, Initial residual = 0, Final residual = 0, No Iterations 0
diagonal:  Solving for T, Initial residual = 0, Final residual = 0, No Iterations 0
diagonal:  Solving for T, Initial residual = 0, Final residual = 0, No Iterations 0
diagonal:  Solving for T, Initial residual = 0, Final residual = 0, No Iterations 0
 T goes from min(T) [0 0 0 0 0 0 0] 8.57131e-21 to max(T) [0 0 0 0 0 0 0] 0.953973

ExecutionTime = 26.37 s  ClockTime = 434 s

Time = 0.1
Courant Number mean: 0.187087 max: 0.367509
diagonal:  Solving for T, Initial residual = 0, Final residual = 0, No Iterations 0
diagonal:  Solving for T, Initial residual = 0, Final residual = 0, No Iterations 0
diagonal:  Solving for T, Initial residual = 0, Final residual = 0, No Iterations 0
diagonal:  Solving for T, Initial residual = 0, Final residual = 0, No Iterations 0
 T goes from min(T) [0 0 0 0 0 0 0] 8.76251e-21 to max(T) [0 0 0 0 0 0 0] 0.953957

ExecutionTime = 26.88 s  ClockTime = 443 s

Time = 0.1025
Courant Number mean: 0.18708 max: 0.367478
diagonal:  Solving for T, Initial residual = 0, Final residual = 0, No Iterations 0
diagonal:  Solving for T, Initial residual = 0, Final residual = 0, No Iterations 0
diagonal:  Solving for T, Initial residual = 0, Final residual = 0, No Iterations 0
diagonal:  Solving for T, Initial residual = 0, Final residual = 0, No Iterations 0
 T goes from min(T) [0 0 0 0 0 0 0] 9.06022e-21 to max(T) [0 0 0 0 0 0 0] 0.953622

ExecutionTime = 27.37 s  ClockTime = 451 s

Time = 0.105
Courant Number mean: 0.187072 max: 0.367449
diagonal:  Solving for T, Initial residual = 0, Final residual = 0, No Iterations 0
diagonal:  Solving for T, Initial residual = 0, Final residual = 0, No Iterations 0
diagonal:  Solving for T, Initial residual = 0, Final residual = 0, No Iterations 0
diagonal:  Solving for T, Initial residual = 0, Final residual = 0, No Iterations 0
 T goes from min(T) [0 0 0 0 0 0 0] 9.31767e-21 to max(T) [0 0 0 0 0 0 0] 0.953214

ExecutionTime = 27.85 s  ClockTime = 459 s

Time = 0.1075
Courant Number mean: 0.18706 max: 0.367432
diagonal:  Solving for T, Initial residual = 0, Final residual = 0, No Iterations 0
diagonal:  Solving for T, Initial residual = 0, Final residual = 0, No Iterations 0
diagonal:  Solving for T, Initial residual = 0, Final residual = 0, No Iterations 0
diagonal:  Solving for T, Initial residual = 0, Final residual = 0, No Iterations 0
 T goes from min(T) [0 0 0 0 0 0 0] 8.94048e-21 to max(T) [0 0 0 0 0 0 0] 0.953296

ExecutionTime = 28.35 s  ClockTime = 468 s

Time = 0.11
Courant Number mean: 0.187046 max: 0.367407
diagonal:  Solving for T, Initial residual = 0, Final residual = 0, No Iterations 0
diagonal:  Solving for T, Initial residual = 0, Final residual = 0, No Iterations 0
diagonal:  Solving for T, Initial residual = 0, Final residual = 0, No Iterations 0
diagonal:  Solving for T, Initial residual = 0, Final residual = 0, No Iterations 0
 T goes from min(T) [0 0 0 0 0 0 0] 8.67102e-21 to max(T) [0 0 0 0 0 0 0] 0.953697

ExecutionTime = 28.83 s  ClockTime = 476 s

Time = 0.1125
Courant Number mean: 0.187029 max: 0.367375
diagonal:  Solving for T, Initial residual = 0, Final residual = 0, No Iterations 0
diagonal:  Solving for T, Initial residual = 0, Final residual = 0, No Iterations 0
diagonal:  Solving for T, Initial residual = 0, Final residual = 0, No Iterations 0
diagonal:  Solving for T, Initial residual = 0, Final residual = 0, No Iterations 0
 T goes from min(T) [0 0 0 0 0 0 0] 8.50813e-21 to max(T) [0 0 0 0 0 0 0] 0.953885

ExecutionTime = 29.31 s  ClockTime = 484 s

Time = 0.115
Courant Number mean: 0.187013 max: 0.36734
diagonal:  Solving for T, Initial residual = 0, Final residual = 0, No Iterations 0
diagonal:  Solving for T, Initial residual = 0, Final residual = 0, No Iterations 0
diagonal:  Solving for T, Initial residual = 0, Final residual = 0, No Iterations 0
diagonal:  Solving for T, Initial residual = 0, Final residual = 0, No Iterations 0
 T goes from min(T) [0 0 0 0 0 0 0] 8.45092e-21 to max(T) [0 0 0 0 0 0 0] 0.953863

ExecutionTime = 29.81 s  ClockTime = 493 s

Time = 0.1175
Courant Number mean: 0.187012 max: 0.367321
diagonal:  Solving for T, Initial residual = 0, Final residual = 0, No Iterations 0
diagonal:  Solving for T, Initial residual = 0, Final residual = 0, No Iterations 0
diagonal:  Solving for T, Initial residual = 0, Final residual = 0, No Iterations 0
diagonal:  Solving for T, Initial residual = 0, Final residual = 0, No Iterations 0
 T goes from min(T) [0 0 0 0 0 0 0] 8.49877e-21 to max(T) [0 0 0 0 0 0 0] 0.953943

ExecutionTime = 30.28 s  ClockTime = 501 s

Time = 0.12
Courant Number mean: 0.187007 max: 0.367294
diagonal:  Solving for T, Initial residual = 0, Final residual = 0, No Iterations 0
diagonal:  Solving for T, Initial residual = 0, Final residual = 0, No Iterations 0
diagonal:  Solving for T, Initial residual = 0, Final residual = 0, No Iterations 0
diagonal:  Solving for T, Initial residual = 0, Final residual = 0, No Iterations 0
 T goes from min(T) [0 0 0 0 0 0 0] 8.65133e-21 to max(T) [0 0 0 0 0 0 0] 0.953712

ExecutionTime = 30.77 s  ClockTime = 509 s

Time = 0.1225
Courant Number mean: 0.187 max: 0.367261
diagonal:  Solving for T, Initial residual = 0, Final residual = 0, No Iterations 0
diagonal:  Solving for T, Initial residual = 0, Final residual = 0, No Iterations 0
diagonal:  Solving for T, Initial residual = 0, Final residual = 0, No Iterations 0
diagonal:  Solving for T, Initial residual = 0, Final residual = 0, No Iterations 0
 T goes from min(T) [0 0 0 0 0 0 0] 8.90855e-21 to max(T) [0 0 0 0 0 0 0] 0.953152

ExecutionTime = 31.25 s  ClockTime = 517 s

Time = 0.125
Courant Number mean: 0.18699 max: 0.36722
diagonal:  Solving for T, Initial residual = 0, Final residual = 0, No Iterations 0
diagonal:  Solving for T, Initial residual = 0, Final residual = 0, No Iterations 0
diagonal:  Solving for T, Initial residual = 0, Final residual = 0, No Iterations 0
diagonal:  Solving for T, Initial residual = 0, Final residual = 0, No Iterations 0
 T goes from min(T) [0 0 0 0 0 0 0] 9.27067e-21 to max(T) [0 0 0 0 0 0 0] 0.953637

ExecutionTime = 31.75 s  ClockTime = 526 s

Time = 0.1275
Courant Number mean: 0.186977 max: 0.3672
diagonal:  Solving for T, Initial residual = 0, Final residual = 0, No Iterations 0
diagonal:  Solving for T, Initial residual = 0, Final residual = 0, No Iterations 0
diagonal:  Solving for T, Initial residual = 0, Final residual = 0, No Iterations 0
diagonal:  Solving for T, Initial residual = 0, Final residual = 0, No Iterations 0
 T goes from min(T) [0 0 0 0 0 0 0] 9.00888e-21 to max(T) [0 0 0 0 0 0 0] 0.953941

ExecutionTime = 32.25 s  ClockTime = 534 s

Time = 0.13
Courant Number mean: 0.186962 max: 0.367172
diagonal:  Solving for T, Initial residual = 0, Final residual = 0, No Iterations 0
diagonal:  Solving for T, Initial residual = 0, Final residual = 0, No Iterations 0
diagonal:  Solving for T, Initial residual = 0, Final residual = 0, No Iterations 0
diagonal:  Solving for T, Initial residual = 0, Final residual = 0, No Iterations 0
 T goes from min(T) [0 0 0 0 0 0 0] 8.70951e-21 to max(T) [0 0 0 0 0 0 0] 0.954041

ExecutionTime = 32.75 s  ClockTime = 543 s

Time = 0.1325
Courant Number mean: 0.186945 max: 0.367137
diagonal:  Solving for T, Initial residual = 0, Final residual = 0, No Iterations 0
diagonal:  Solving for T, Initial residual = 0, Final residual = 0, No Iterations 0
diagonal:  Solving for T, Initial residual = 0, Final residual = 0, No Iterations 0
diagonal:  Solving for T, Initial residual = 0, Final residual = 0, No Iterations 0
 T goes from min(T) [0 0 0 0 0 0 0] 8.5152e-21 to max(T) [0 0 0 0 0 0 0] 0.953941

ExecutionTime = 33.23 s  ClockTime = 551 s

Time = 0.135
Courant Number mean: 0.186925 max: 0.367096
diagonal:  Solving for T, Initial residual = 0, Final residual = 0, No Iterations 0
diagonal:  Solving for T, Initial residual = 0, Final residual = 0, No Iterations 0
diagonal:  Solving for T, Initial residual = 0, Final residual = 0, No Iterations 0
diagonal:  Solving for T, Initial residual = 0, Final residual = 0, No Iterations 0
 T goes from min(T) [0 0 0 0 0 0 0] 8.42498e-21 to max(T) [0 0 0 0 0 0 0] 0.953646

ExecutionTime = 33.71 s  ClockTime = 559 s

Time = 0.1375
Courant Number mean: 0.186918 max: 0.367069
diagonal:  Solving for T, Initial residual = 0, Final residual = 0, No Iterations 0
diagonal:  Solving for T, Initial residual = 0, Final residual = 0, No Iterations 0
diagonal:  Solving for T, Initial residual = 0, Final residual = 0, No Iterations 0
diagonal:  Solving for T, Initial residual = 0, Final residual = 0, No Iterations 0
 T goes from min(T) [0 0 0 0 0 0 0] 8.43821e-21 to max(T) [0 0 0 0 0 0 0] 0.953392

ExecutionTime = 34.19 s  ClockTime = 567 s

Time = 0.14
Courant Number mean: 0.186913 max: 0.36704
diagonal:  Solving for T, Initial residual = 0, Final residual = 0, No Iterations 0
diagonal:  Solving for T, Initial residual = 0, Final residual = 0, No Iterations 0
diagonal:  Solving for T, Initial residual = 0, Final residual = 0, No Iterations 0
diagonal:  Solving for T, Initial residual = 0, Final residual = 0, No Iterations 0
 T goes from min(T) [0 0 0 0 0 0 0] 8.55453e-21 to max(T) [0 0 0 0 0 0 0] 0.953452

ExecutionTime = 34.67 s  ClockTime = 575 s

Time = 0.1425
Courant Number mean: 0.186905 max: 0.367004
diagonal:  Solving for T, Initial residual = 0, Final residual = 0, No Iterations 0
diagonal:  Solving for T, Initial residual = 0, Final residual = 0, No Iterations 0
diagonal:  Solving for T, Initial residual = 0, Final residual = 0, No Iterations 0
diagonal:  Solving for T, Initial residual = 0, Final residual = 0, No Iterations 0
 T goes from min(T) [0 0 0 0 0 0 0] 8.77387e-21 to max(T) [0 0 0 0 0 0 0] 0.953862

ExecutionTime = 35.18 s  ClockTime = 584 s

Time = 0.145
Courant Number mean: 0.186894 max: 0.36696
diagonal:  Solving for T, Initial residual = 0, Final residual = 0, No Iterations 0
diagonal:  Solving for T, Initial residual = 0, Final residual = 0, No Iterations 0
diagonal:  Solving for T, Initial residual = 0, Final residual = 0, No Iterations 0
diagonal:  Solving for T, Initial residual = 0, Final residual = 0, No Iterations 0
 T goes from min(T) [0 0 0 0 0 0 0] 9.09652e-21 to max(T) [0 0 0 0 0 0 0] 0.954072

ExecutionTime = 35.66 s  ClockTime = 592 s

Time = 0.1475
Courant Number mean: 0.18688 max: 0.366928
diagonal:  Solving for T, Initial residual = 0, Final residual = 0, No Iterations 0
diagonal:  Solving for T, Initial residual = 0, Final residual = 0, No Iterations 0
diagonal:  Solving for T, Initial residual = 0, Final residual = 0, No Iterations 0
diagonal:  Solving for T, Initial residual = 0, Final residual = 0, No Iterations 0
 T goes from min(T) [0 0 0 0 0 0 0] 9.08529e-21 to max(T) [0 0 0 0 0 0 0] 0.954087

ExecutionTime = 36.15 s  ClockTime = 600 s

Time = 0.15
Courant Number mean: 0.186864 max: 0.366898
diagonal:  Solving for T, Initial residual = 0, Final residual = 0, No Iterations 0
diagonal:  Solving for T, Initial residual = 0, Final residual = 0, No Iterations 0
diagonal:  Solving for T, Initial residual = 0, Final residual = 0, No Iterations 0
diagonal:  Solving for T, Initial residual = 0, Final residual = 0, No Iterations 0
 T goes from min(T) [0 0 0 0 0 0 0] 8.75682e-21 to max(T) [0 0 0 0 0 0 0] 0.953911

ExecutionTime = 36.63 s  ClockTime = 609 s

Time = 0.1525
Courant Number mean: 0.186846 max: 0.36686
diagonal:  Solving for T, Initial residual = 0, Final residual = 0, No Iterations 0
diagonal:  Solving for T, Initial residual = 0, Final residual = 0, No Iterations 0
diagonal:  Solving for T, Initial residual = 0, Final residual = 0, No Iterations 0
diagonal:  Solving for T, Initial residual = 0, Final residual = 0, No Iterations 0
 T goes from min(T) [0 0 0 0 0 0 0] 8.53219e-21 to max(T) [0 0 0 0 0 0 0] 0.95355

ExecutionTime = 37.1 s  ClockTime = 617 s

Time = 0.155
Courant Number mean: 0.186825 max: 0.366816
diagonal:  Solving for T, Initial residual = 0, Final residual = 0, No Iterations 0
diagonal:  Solving for T, Initial residual = 0, Final residual = 0, No Iterations 0
diagonal:  Solving for T, Initial residual = 0, Final residual = 0, No Iterations 0
diagonal:  Solving for T, Initial residual = 0, Final residual = 0, No Iterations 0
 T goes from min(T) [0 0 0 0 0 0 0] 8.41038e-21 to max(T) [0 0 0 0 0 0 0] 0.953253

ExecutionTime = 37.59 s  ClockTime = 625 s

Time = 0.1575
Courant Number mean: 0.186811 max: 0.366778
diagonal:  Solving for T, Initial residual = 0, Final residual = 0, No Iterations 0
diagonal:  Solving for T, Initial residual = 0, Final residual = 0, No Iterations 0
diagonal:  Solving for T, Initial residual = 0, Final residual = 0, No Iterations 0
diagonal:  Solving for T, Initial residual = 0, Final residual = 0, No Iterations 0
 T goes from min(T) [0 0 0 0 0 0 0] 8.39067e-21 to max(T) [0 0 0 0 0 0 0] 0.953685

ExecutionTime = 38.07 s  ClockTime = 633 s

Time = 0.16
Courant Number mean: 0.186804 max: 0.366746
diagonal:  Solving for T, Initial residual = 0, Final residual = 0, No Iterations 0
diagonal:  Solving for T, Initial residual = 0, Final residual = 0, No Iterations 0
diagonal:  Solving for T, Initial residual = 0, Final residual = 0, No Iterations 0
diagonal:  Solving for T, Initial residual = 0, Final residual = 0, No Iterations 0
 T goes from min(T) [0 0 0 0 0 0 0] 8.47264e-21 to max(T) [0 0 0 0 0 0 0] 0.953998

ExecutionTime = 38.55 s  ClockTime = 641 s

Time = 0.1625
Courant Number mean: 0.186795 max: 0.366707
diagonal:  Solving for T, Initial residual = 0, Final residual = 0, No Iterations 0
diagonal:  Solving for T, Initial residual = 0, Final residual = 0, No Iterations 0
diagonal:  Solving for T, Initial residual = 0, Final residual = 0, No Iterations 0
diagonal:  Solving for T, Initial residual = 0, Final residual = 0, No Iterations 0
 T goes from min(T) [0 0 0 0 0 0 0] 8.65623e-21 to max(T) [0 0 0 0 0 0 0] 0.95412

ExecutionTime = 39.03 s  ClockTime = 649 s

Time = 0.165
Courant Number mean: 0.186783 max: 0.366661
diagonal:  Solving for T, Initial residual = 0, Final residual = 0, No Iterations 0
diagonal:  Solving for T, Initial residual = 0, Final residual = 0, No Iterations 0
diagonal:  Solving for T, Initial residual = 0, Final residual = 0, No Iterations 0
diagonal:  Solving for T, Initial residual = 0, Final residual = 0, No Iterations 0
 T goes from min(T) [0 0 0 0 0 0 0] 8.94169e-21 to max(T) [0 0 0 0 0 0 0] 0.954055

ExecutionTime = 39.6 s  ClockTime = 659 s

Time = 0.1675
Courant Number mean: 0.186769 max: 0.366617
diagonal:  Solving for T, Initial residual = 0, Final residual = 0, No Iterations 0
diagonal:  Solving for T, Initial residual = 0, Final residual = 0, No Iterations 0
diagonal:  Solving for T, Initial residual = 0, Final residual = 0, No Iterations 0
diagonal:  Solving for T, Initial residual = 0, Final residual = 0, No Iterations 0
 T goes from min(T) [0 0 0 0 0 0 0] 9.17082e-21 to max(T) [0 0 0 0 0 0 0] 0.953809

ExecutionTime = 40.09 s  ClockTime = 667 s

Time = 0.17
Courant Number mean: 0.186752 max: 0.366584
diagonal:  Solving for T, Initial residual = 0, Final residual = 0, No Iterations 0
diagonal:  Solving for T, Initial residual = 0, Final residual = 0, No Iterations 0
diagonal:  Solving for T, Initial residual = 0, Final residual = 0, No Iterations 0
diagonal:  Solving for T, Initial residual = 0, Final residual = 0, No Iterations 0
 T goes from min(T) [0 0 0 0 0 0 0] 8.81394e-21 to max(T) [0 0 0 0 0 0 0] 0.953387

ExecutionTime = 40.58 s  ClockTime = 676 s

Time = 0.1725
Courant Number mean: 0.186733 max: 0.366544
diagonal:  Solving for T, Initial residual = 0, Final residual = 0, No Iterations 0
diagonal:  Solving for T, Initial residual = 0, Final residual = 0, No Iterations 0
diagonal:  Solving for T, Initial residual = 0, Final residual = 0, No Iterations 0
diagonal:  Solving for T, Initial residual = 0, Final residual = 0, No Iterations 0
 T goes from min(T) [0 0 0 0 0 0 0] 8.55997e-21 to max(T) [0 0 0 0 0 0 0] 0.953443

ExecutionTime = 41.06 s  ClockTime = 684 s

Time = 0.175
Courant Number mean: 0.186711 max: 0.366496
diagonal:  Solving for T, Initial residual = 0, Final residual = 0, No Iterations 0
diagonal:  Solving for T, Initial residual = 0, Final residual = 0, No Iterations 0
diagonal:  Solving for T, Initial residual = 0, Final residual = 0, No Iterations 0
diagonal:  Solving for T, Initial residual = 0, Final residual = 0, No Iterations 0
 T goes from min(T) [0 0 0 0 0 0 0] 8.40774e-21 to max(T) [0 0 0 0 0 0 0] 0.953854

ExecutionTime = 41.55 s  ClockTime = 692 s

Time = 0.1775
Courant Number mean: 0.186689 max: 0.366447
diagonal:  Solving for T, Initial residual = 0, Final residual = 0, No Iterations 0
diagonal:  Solving for T, Initial residual = 0, Final residual = 0, No Iterations 0
diagonal:  Solving for T, Initial residual = 0, Final residual = 0, No Iterations 0
diagonal:  Solving for T, Initial residual = 0, Final residual = 0, No Iterations 0
 T goes from min(T) [0 0 0 0 0 0 0] 8.35648e-21 to max(T) [0 0 0 0 0 0 0] 0.954074

ExecutionTime = 42.07 s  ClockTime = 701 s

Time = 0.18
Courant Number mean: 0.186682 max: 0.366412
diagonal:  Solving for T, Initial residual = 0, Final residual = 0, No Iterations 0
diagonal:  Solving for T, Initial residual = 0, Final residual = 0, No Iterations 0
diagonal:  Solving for T, Initial residual = 0, Final residual = 0, No Iterations 0
diagonal:  Solving for T, Initial residual = 0, Final residual = 0, No Iterations 0
 T goes from min(T) [0 0 0 0 0 0 0] 8.4057e-21 to max(T) [0 0 0 0 0 0 0] 0.954115

ExecutionTime = 42.56 s  ClockTime = 709 s

Time = 0.1825
Courant Number mean: 0.186671 max: 0.36637
diagonal:  Solving for T, Initial residual = 0, Final residual = 0, No Iterations 0
diagonal:  Solving for T, Initial residual = 0, Final residual = 0, No Iterations 0
diagonal:  Solving for T, Initial residual = 0, Final residual = 0, No Iterations 0
diagonal:  Solving for T, Initial residual = 0, Final residual = 0, No Iterations 0
 T goes from min(T) [0 0 0 0 0 0 0] 8.55529e-21 to max(T) [0 0 0 0 0 0 0] 0.953978

ExecutionTime = 43.06 s  ClockTime = 718 s

Time = 0.185
Courant Number mean: 0.186658 max: 0.366322
diagonal:  Solving for T, Initial residual = 0, Final residual = 0, No Iterations 0
diagonal:  Solving for T, Initial residual = 0, Final residual = 0, No Iterations 0
diagonal:  Solving for T, Initial residual = 0, Final residual = 0, No Iterations 0
diagonal:  Solving for T, Initial residual = 0, Final residual = 0, No Iterations 0
 T goes from min(T) [0 0 0 0 0 0 0] 8.80546e-21 to max(T) [0 0 0 0 0 0 0] 0.953669

ExecutionTime = 43.55 s  ClockTime = 726 s

Time = 0.1875
Courant Number mean: 0.186643 max: 0.366266
diagonal:  Solving for T, Initial residual = 0, Final residual = 0, No Iterations 0
diagonal:  Solving for T, Initial residual = 0, Final residual = 0, No Iterations 0
diagonal:  Solving for T, Initial residual = 0, Final residual = 0, No Iterations 0
diagonal:  Solving for T, Initial residual = 0, Final residual = 0, No Iterations 0
 T goes from min(T) [0 0 0 0 0 0 0] 9.15678e-21 to max(T) [0 0 0 0 0 0 0] 0.953191

ExecutionTime = 44.02 s  ClockTime = 734 s

Time = 0.19
Courant Number mean: 0.186625 max: 0.36623
diagonal:  Solving for T, Initial residual = 0, Final residual = 0, No Iterations 0
diagonal:  Solving for T, Initial residual = 0, Final residual = 0, No Iterations 0
diagonal:  Solving for T, Initial residual = 0, Final residual = 0, No Iterations 0
diagonal:  Solving for T, Initial residual = 0, Final residual = 0, No Iterations 0
 T goes from min(T) [0 0 0 0 0 0 0] 8.88136e-21 to max(T) [0 0 0 0 0 0 0] 0.953654

ExecutionTime = 44.51 s  ClockTime = 743 s

Time = 0.1925
Courant Number mean: 0.186605 max: 0.366187
diagonal:  Solving for T, Initial residual = 0, Final residual = 0, No Iterations 0
diagonal:  Solving for T, Initial residual = 0, Final residual = 0, No Iterations 0
diagonal:  Solving for T, Initial residual = 0, Final residual = 0, No Iterations 0
diagonal:  Solving for T, Initial residual = 0, Final residual = 0, No Iterations 0
 T goes from min(T) [0 0 0 0 0 0 0] 8.59885e-21 to max(T) [0 0 0 0 0 0 0] 0.953972

ExecutionTime = 45 s  ClockTime = 750 s

Time = 0.195
Courant Number mean: 0.186582 max: 0.366137
diagonal:  Solving for T, Initial residual = 0, Final residual = 0, No Iterations 0
diagonal:  Solving for T, Initial residual = 0, Final residual = 0, No Iterations 0
diagonal:  Solving for T, Initial residual = 0, Final residual = 0, No Iterations 0
diagonal:  Solving for T, Initial residual = 0, Final residual = 0, No Iterations 0
 T goes from min(T) [0 0 0 0 0 0 0] 8.41723e-21 to max(T) [0 0 0 0 0 0 0] 0.954114

ExecutionTime = 45.47 s  ClockTime = 758 s

Time = 0.1975
Courant Number mean: 0.186556 max: 0.36608
diagonal:  Solving for T, Initial residual = 0, Final residual = 0, No Iterations 0
diagonal:  Solving for T, Initial residual = 0, Final residual = 0, No Iterations 0
diagonal:  Solving for T, Initial residual = 0, Final residual = 0, No Iterations 0
diagonal:  Solving for T, Initial residual = 0, Final residual = 0, No Iterations 0
 T goes from min(T) [0 0 0 0 0 0 0] 8.33561e-21 to max(T) [0 0 0 0 0 0 0] 0.954082

ExecutionTime = 45.95 s  ClockTime = 766 s

Time = 0.2
Courant Number mean: 0.186545 max: 0.366038
diagonal:  Solving for T, Initial residual = 0, Final residual = 0, No Iterations 0
diagonal:  Solving for T, Initial residual = 0, Final residual = 0, No Iterations 0
diagonal:  Solving for T, Initial residual = 0, Final residual = 0, No Iterations 0
diagonal:  Solving for T, Initial residual = 0, Final residual = 0, No Iterations 0
 T goes from min(T) [0 0 0 0 0 0 0] 8.35344e-21 to max(T) [0 0 0 0 0 0 0] 0.953881

ExecutionTime = 46.42 s  ClockTime = 773 s

Time = 0.2025
Courant Number mean: 0.186533 max: 0.365994
diagonal:  Solving for T, Initial residual = 0, Final residual = 0, No Iterations 0
diagonal:  Solving for T, Initial residual = 0, Final residual = 0, No Iterations 0
diagonal:  Solving for T, Initial residual = 0, Final residual = 0, No Iterations 0
diagonal:  Solving for T, Initial residual = 0, Final residual = 0, No Iterations 0
 T goes from min(T) [0 0 0 0 0 0 0] 8.47054e-21 to max(T) [0 0 0 0 0 0 0] 0.953517

ExecutionTime = 46.9 s  ClockTime = 781 s

Time = 0.205
Courant Number mean: 0.186519 max: 0.365943
diagonal:  Solving for T, Initial residual = 0, Final residual = 0, No Iterations 0
diagonal:  Solving for T, Initial residual = 0, Final residual = 0, No Iterations 0
diagonal:  Solving for T, Initial residual = 0, Final residual = 0, No Iterations 0
diagonal:  Solving for T, Initial residual = 0, Final residual = 0, No Iterations 0
 T goes from min(T) [0 0 0 0 0 0 0] 8.68706e-21 to max(T) [0 0 0 0 0 0 0] 0.953447

ExecutionTime = 47.38 s  ClockTime = 788 s

Time = 0.2075
Courant Number mean: 0.186503 max: 0.365884
diagonal:  Solving for T, Initial residual = 0, Final residual = 0, No Iterations 0
diagonal:  Solving for T, Initial residual = 0, Final residual = 0, No Iterations 0
diagonal:  Solving for T, Initial residual = 0, Final residual = 0, No Iterations 0
diagonal:  Solving for T, Initial residual = 0, Final residual = 0, No Iterations 0
 T goes from min(T) [0 0 0 0 0 0 0] 9.00352e-21 to max(T) [0 0 0 0 0 0 0] 0.953832

ExecutionTime = 47.87 s  ClockTime = 795 s

Time = 0.21
Courant Number mean: 0.186484 max: 0.365837
diagonal:  Solving for T, Initial residual = 0, Final residual = 0, No Iterations 0
diagonal:  Solving for T, Initial residual = 0, Final residual = 0, No Iterations 0
diagonal:  Solving for T, Initial residual = 0, Final residual = 0, No Iterations 0
diagonal:  Solving for T, Initial residual = 0, Final residual = 0, No Iterations 0
 T goes from min(T) [0 0 0 0 0 0 0] 8.95921e-21 to max(T) [0 0 0 0 0 0 0] 0.95406

ExecutionTime = 48.37 s  ClockTime = 803 s

Time = 0.2125
Courant Number mean: 0.186463 max: 0.365791
diagonal:  Solving for T, Initial residual = 0, Final residual = 0, No Iterations 0
diagonal:  Solving for T, Initial residual = 0, Final residual = 0, No Iterations 0
diagonal:  Solving for T, Initial residual = 0, Final residual = 0, No Iterations 0
diagonal:  Solving for T, Initial residual = 0, Final residual = 0, No Iterations 0
 T goes from min(T) [0 0 0 0 0 0 0] 8.64889e-21 to max(T) [0 0 0 0 0 0 0] 0.954131

ExecutionTime = 48.86 s  ClockTime = 810 s

Time = 0.215
Courant Number mean: 0.186439 max: 0.365738
diagonal:  Solving for T, Initial residual = 0, Final residual = 0, No Iterations 0
diagonal:  Solving for T, Initial residual = 0, Final residual = 0, No Iterations 0
diagonal:  Solving for T, Initial residual = 0, Final residual = 0, No Iterations 0
diagonal:  Solving for T, Initial residual = 0, Final residual = 0, No Iterations 0
 T goes from min(T) [0 0 0 0 0 0 0] 8.43876e-21 to max(T) [0 0 0 0 0 0 0] 0.954037

ExecutionTime = 49.37 s  ClockTime = 818 s

Time = 0.2175
Courant Number mean: 0.186413 max: 0.365679
diagonal:  Solving for T, Initial residual = 0, Final residual = 0, No Iterations 0
diagonal:  Solving for T, Initial residual = 0, Final residual = 0, No Iterations 0
diagonal:  Solving for T, Initial residual = 0, Final residual = 0, No Iterations 0
diagonal:  Solving for T, Initial residual = 0, Final residual = 0, No Iterations 0
 T goes from min(T) [0 0 0 0 0 0 0] 8.32781e-21 to max(T) [0 0 0 0 0 0 0] 0.953783

ExecutionTime = 49.84 s  ClockTime = 825 s

Time = 0.22
Courant Number mean: 0.186393 max: 0.365625
diagonal:  Solving for T, Initial residual = 0, Final residual = 0, No Iterations 0
diagonal:  Solving for T, Initial residual = 0, Final residual = 0, No Iterations 0
diagonal:  Solving for T, Initial residual = 0, Final residual = 0, No Iterations 0
diagonal:  Solving for T, Initial residual = 0, Final residual = 0, No Iterations 0
 T goes from min(T) [0 0 0 0 0 0 0] 8.31543e-21 to max(T) [0 0 0 0 0 0 0] 0.953372

ExecutionTime = 50.33 s  ClockTime = 832 s

Time = 0.2225
Courant Number mean: 0.186381 max: 0.365578
diagonal:  Solving for T, Initial residual = 0, Final residual = 0, No Iterations 0
diagonal:  Solving for T, Initial residual = 0, Final residual = 0, No Iterations 0
diagonal:  Solving for T, Initial residual = 0, Final residual = 0, No Iterations 0
diagonal:  Solving for T, Initial residual = 0, Final residual = 0, No Iterations 0
 T goes from min(T) [0 0 0 0 0 0 0] 8.40135e-21 to max(T) [0 0 0 0 0 0 0] 0.953605

ExecutionTime = 50.82 s  ClockTime = 839 s

Time = 0.225
Courant Number mean: 0.186366 max: 0.365524
diagonal:  Solving for T, Initial residual = 0, Final residual = 0, No Iterations 0
diagonal:  Solving for T, Initial residual = 0, Final residual = 0, No Iterations 0
diagonal:  Solving for T, Initial residual = 0, Final residual = 0, No Iterations 0
diagonal:  Solving for T, Initial residual = 0, Final residual = 0, No Iterations 0
 T goes from min(T) [0 0 0 0 0 0 0] 8.58565e-21 to max(T) [0 0 0 0 0 0 0] 0.953942

ExecutionTime = 51.31 s  ClockTime = 847 s

Time = 0.2275
Courant Number mean: 0.186349 max: 0.365463
diagonal:  Solving for T, Initial residual = 0, Final residual = 0, No Iterations 0
diagonal:  Solving for T, Initial residual = 0, Final residual = 0, No Iterations 0
diagonal:  Solving for T, Initial residual = 0, Final residual = 0, No Iterations 0
diagonal:  Solving for T, Initial residual = 0, Final residual = 0, No Iterations 0
 T goes from min(T) [0 0 0 0 0 0 0] 8.86879e-21 to max(T) [0 0 0 0 0 0 0] 0.954114

ExecutionTime = 51.83 s  ClockTime = 855 s

Time = 0.23
Courant Number mean: 0.186329 max: 0.365404
diagonal:  Solving for T, Initial residual = 0, Final residual = 0, No Iterations 0
diagonal:  Solving for T, Initial residual = 0, Final residual = 0, No Iterations 0
diagonal:  Solving for T, Initial residual = 0, Final residual = 0, No Iterations 0
diagonal:  Solving for T, Initial residual = 0, Final residual = 0, No Iterations 0
 T goes from min(T) [0 0 0 0 0 0 0] 9.04746e-21 to max(T) [0 0 0 0 0 0 0] 0.954126

ExecutionTime = 52.32 s  ClockTime = 862 s

Time = 0.2325
Courant Number mean: 0.186307 max: 0.365356
diagonal:  Solving for T, Initial residual = 0, Final residual = 0, No Iterations 0
diagonal:  Solving for T, Initial residual = 0, Final residual = 0, No Iterations 0
diagonal:  Solving for T, Initial residual = 0, Final residual = 0, No Iterations 0
diagonal:  Solving for T, Initial residual = 0, Final residual = 0, No Iterations 0
 T goes from min(T) [0 0 0 0 0 0 0] 8.70997e-21 to max(T) [0 0 0 0 0 0 0] 0.953981

ExecutionTime = 52.8 s  ClockTime = 869 s

Time = 0.235
Courant Number mean: 0.186282 max: 0.3653
diagonal:  Solving for T, Initial residual = 0, Final residual = 0, No Iterations 0
diagonal:  Solving for T, Initial residual = 0, Final residual = 0, No Iterations 0
diagonal:  Solving for T, Initial residual = 0, Final residual = 0, No Iterations 0
diagonal:  Solving for T, Initial residual = 0, Final residual = 0, No Iterations 0
 T goes from min(T) [0 0 0 0 0 0 0] 8.47209e-21 to max(T) [0 0 0 0 0 0 0] 0.953684

ExecutionTime = 53.3 s  ClockTime = 877 s

Time = 0.2375
Courant Number mean: 0.186254 max: 0.365238
diagonal:  Solving for T, Initial residual = 0, Final residual = 0, No Iterations 0
diagonal:  Solving for T, Initial residual = 0, Final residual = 0, No Iterations 0
diagonal:  Solving for T, Initial residual = 0, Final residual = 0, No Iterations 0
diagonal:  Solving for T, Initial residual = 0, Final residual = 0, No Iterations 0
 T goes from min(T) [0 0 0 0 0 0 0] 8.33273e-21 to max(T) [0 0 0 0 0 0 0] 0.953283

ExecutionTime = 53.82 s  ClockTime = 884 s

Time = 0.24
Courant Number mean: 0.186227 max: 0.365173
diagonal:  Solving for T, Initial residual = 0, Final residual = 0, No Iterations 0
diagonal:  Solving for T, Initial residual = 0, Final residual = 0, No Iterations 0
diagonal:  Solving for T, Initial residual = 0, Final residual = 0, No Iterations 0
diagonal:  Solving for T, Initial residual = 0, Final residual = 0, No Iterations 0
 T goes from min(T) [0 0 0 0 0 0 0] 8.29117e-21 to max(T) [0 0 0 0 0 0 0] 0.95372

ExecutionTime = 54.3 s  ClockTime = 892 s

Time = 0.2425
Courant Number mean: 0.186214 max: 0.365123
diagonal:  Solving for T, Initial residual = 0, Final residual = 0, No Iterations 0
diagonal:  Solving for T, Initial residual = 0, Final residual = 0, No Iterations 0
diagonal:  Solving for T, Initial residual = 0, Final residual = 0, No Iterations 0
diagonal:  Solving for T, Initial residual = 0, Final residual = 0, No Iterations 0
 T goes from min(T) [0 0 0 0 0 0 0] 8.34705e-21 to max(T) [0 0 0 0 0 0 0] 0.953995

ExecutionTime = 54.81 s  ClockTime = 899 s

Time = 0.245
Courant Number mean: 0.186199 max: 0.365066
diagonal:  Solving for T, Initial residual = 0, Final residual = 0, No Iterations 0
diagonal:  Solving for T, Initial residual = 0, Final residual = 0, No Iterations 0
diagonal:  Solving for T, Initial residual = 0, Final residual = 0, No Iterations 0
diagonal:  Solving for T, Initial residual = 0, Final residual = 0, No Iterations 0
 T goes from min(T) [0 0 0 0 0 0 0] 8.50039e-21 to max(T) [0 0 0 0 0 0 0] 0.954114

ExecutionTime = 55.29 s  ClockTime = 906 s

Time = 0.2475
Courant Number mean: 0.186181 max: 0.365002
diagonal:  Solving for T, Initial residual = 0, Final residual = 0, No Iterations 0
diagonal:  Solving for T, Initial residual = 0, Final residual = 0, No Iterations 0
diagonal:  Solving for T, Initial residual = 0, Final residual = 0, No Iterations 0
diagonal:  Solving for T, Initial residual = 0, Final residual = 0, No Iterations 0
 T goes from min(T) [0 0 0 0 0 0 0] 8.75157e-21 to max(T) [0 0 0 0 0 0 0] 0.95408

ExecutionTime = 55.78 s  ClockTime = 914 s

Time = 0.25
Courant Number mean: 0.18616 max: 0.364932
diagonal:  Solving for T, Initial residual = 0, Final residual = 0, No Iterations 0
diagonal:  Solving for T, Initial residual = 0, Final residual = 0, No Iterations 0
diagonal:  Solving for T, Initial residual = 0, Final residual = 0, No Iterations 0
diagonal:  Solving for T, Initial residual = 0, Final residual = 0, No Iterations 0
 T goes from min(T) [0 0 0 0 0 0 0] 9.10135e-21 to max(T) [0 0 0 0 0 0 0] 0.953896

ExecutionTime = 56.28 s  ClockTime = 921 s

Time = 0.2525
Courant Number mean: 0.186137 max: 0.364881
diagonal:  Solving for T, Initial residual = 0, Final residual = 0, No Iterations 0
diagonal:  Solving for T, Initial residual = 0, Final residual = 0, No Iterations 0
diagonal:  Solving for T, Initial residual = 0, Final residual = 0, No Iterations 0
diagonal:  Solving for T, Initial residual = 0, Final residual = 0, No Iterations 0
 T goes from min(T) [0 0 0 0 0 0 0] 8.78186e-21 to max(T) [0 0 0 0 0 0 0] 0.953645

ExecutionTime = 56.76 s  ClockTime = 929 s

Time = 0.255
Courant Number mean: 0.186111 max: 0.364823
diagonal:  Solving for T, Initial residual = 0, Final residual = 0, No Iterations 0
diagonal:  Solving for T, Initial residual = 0, Final residual = 0, No Iterations 0
diagonal:  Solving for T, Initial residual = 0, Final residual = 0, No Iterations 0
diagonal:  Solving for T, Initial residual = 0, Final residual = 0, No Iterations 0
 T goes from min(T) [0 0 0 0 0 0 0] 8.51692e-21 to max(T) [0 0 0 0 0 0 0] 0.953323

ExecutionTime = 57.28 s  ClockTime = 936 s

Time = 0.2575
Courant Number mean: 0.186082 max: 0.364758
diagonal:  Solving for T, Initial residual = 0, Final residual = 0, No Iterations 0
diagonal:  Solving for T, Initial residual = 0, Final residual = 0, No Iterations 0
diagonal:  Solving for T, Initial residual = 0, Final residual = 0, No Iterations 0
diagonal:  Solving for T, Initial residual = 0, Final residual = 0, No Iterations 0
 T goes from min(T) [0 0 0 0 0 0 0] 8.34994e-21 to max(T) [0 0 0 0 0 0 0] 0.953705

ExecutionTime = 57.78 s  ClockTime = 944 s

Time = 0.26
Courant Number mean: 0.186051 max: 0.364686
diagonal:  Solving for T, Initial residual = 0, Final residual = 0, No Iterations 0
diagonal:  Solving for T, Initial residual = 0, Final residual = 0, No Iterations 0
diagonal:  Solving for T, Initial residual = 0, Final residual = 0, No Iterations 0
diagonal:  Solving for T, Initial residual = 0, Final residual = 0, No Iterations 0
 T goes from min(T) [0 0 0 0 0 0 0] 8.28011e-21 to max(T) [0 0 0 0 0 0 0] 0.953933

ExecutionTime = 58.27 s  ClockTime = 951 s

Time = 0.2625
Courant Number mean: 0.186034 max: 0.364629
diagonal:  Solving for T, Initial residual = 0, Final residual = 0, No Iterations 0
diagonal:  Solving for T, Initial residual = 0, Final residual = 0, No Iterations 0
diagonal:  Solving for T, Initial residual = 0, Final residual = 0, No Iterations 0
diagonal:  Solving for T, Initial residual = 0, Final residual = 0, No Iterations 0
 T goes from min(T) [0 0 0 0 0 0 0] 8.30697e-21 to max(T) [0 0 0 0 0 0 0] 0.954104

ExecutionTime = 58.75 s  ClockTime = 958 s

Time = 0.265
Courant Number mean: 0.186017 max: 0.364569
diagonal:  Solving for T, Initial residual = 0, Final residual = 0, No Iterations 0
diagonal:  Solving for T, Initial residual = 0, Final residual = 0, No Iterations 0
diagonal:  Solving for T, Initial residual = 0, Final residual = 0, No Iterations 0
diagonal:  Solving for T, Initial residual = 0, Final residual = 0, No Iterations 0
 T goes from min(T) [0 0 0 0 0 0 0] 8.43047e-21 to max(T) [0 0 0 0 0 0 0] 0.953992

ExecutionTime = 59.23 s  ClockTime = 965 s

Time = 0.2675
Courant Number mean: 0.185998 max: 0.364502
diagonal:  Solving for T, Initial residual = 0, Final residual = 0, No Iterations 0
diagonal:  Solving for T, Initial residual = 0, Final residual = 0, No Iterations 0
diagonal:  Solving for T, Initial residual = 0, Final residual = 0, No Iterations 0
diagonal:  Solving for T, Initial residual = 0, Final residual = 0, No Iterations 0
 T goes from min(T) [0 0 0 0 0 0 0] 8.6509e-21 to max(T) [0 0 0 0 0 0 0] 0.953736

ExecutionTime = 59.71 s  ClockTime = 973 s

Time = 0.27
Courant Number mean: 0.185976 max: 0.364429
diagonal:  Solving for T, Initial residual = 0, Final residual = 0, No Iterations 0
diagonal:  Solving for T, Initial residual = 0, Final residual = 0, No Iterations 0
diagonal:  Solving for T, Initial residual = 0, Final residual = 0, No Iterations 0
diagonal:  Solving for T, Initial residual = 0, Final residual = 0, No Iterations 0
 T goes from min(T) [0 0 0 0 0 0 0] 8.96896e-21 to max(T) [0 0 0 0 0 0 0] 0.953389

ExecutionTime = 60.2 s  ClockTime = 980 s

Time = 0.2725
Courant Number mean: 0.185952 max: 0.364366
diagonal:  Solving for T, Initial residual = 0, Final residual = 0, No Iterations 0
diagonal:  Solving for T, Initial residual = 0, Final residual = 0, No Iterations 0
diagonal:  Solving for T, Initial residual = 0, Final residual = 0, No Iterations 0
diagonal:  Solving for T, Initial residual = 0, Final residual = 0, No Iterations 0
 T goes from min(T) [0 0 0 0 0 0 0] 8.86428e-21 to max(T) [0 0 0 0 0 0 0] 0.95327

ExecutionTime = 60.66 s  ClockTime = 987 s

Time = 0.275
Courant Number mean: 0.185925 max: 0.364305
diagonal:  Solving for T, Initial residual = 0, Final residual = 0, No Iterations 0
diagonal:  Solving for T, Initial residual = 0, Final residual = 0, No Iterations 0
diagonal:  Solving for T, Initial residual = 0, Final residual = 0, No Iterations 0
diagonal:  Solving for T, Initial residual = 0, Final residual = 0, No Iterations 0
 T goes from min(T) [0 0 0 0 0 0 0] 8.57287e-21 to max(T) [0 0 0 0 0 0 0] 0.953676

ExecutionTime = 61.16 s  ClockTime = 994 s

Time = 0.2775
Courant Number mean: 0.185896 max: 0.364238
diagonal:  Solving for T, Initial residual = 0, Final residual = 0, No Iterations 0
diagonal:  Solving for T, Initial residual = 0, Final residual = 0, No Iterations 0
diagonal:  Solving for T, Initial residual = 0, Final residual = 0, No Iterations 0
diagonal:  Solving for T, Initial residual = 0, Final residual = 0, No Iterations 0
 T goes from min(T) [0 0 0 0 0 0 0] 8.37898e-21 to max(T) [0 0 0 0 0 0 0] 0.953712

ExecutionTime = 61.65 s  ClockTime = 1002 s

Time = 0.28
Courant Number mean: 0.185864 max: 0.364163
diagonal:  Solving for T, Initial residual = 0, Final residual = 0, No Iterations 0
diagonal:  Solving for T, Initial residual = 0, Final residual = 0, No Iterations 0
diagonal:  Solving for T, Initial residual = 0, Final residual = 0, No Iterations 0
diagonal:  Solving for T, Initial residual = 0, Final residual = 0, No Iterations 0
 T goes from min(T) [0 0 0 0 0 0 0] 8.28169e-21 to max(T) [0 0 0 0 0 0 0] 0.953726

ExecutionTime = 62.14 s  ClockTime = 1009 s

Time = 0.2825
Courant Number mean: 0.185839 max: 0.364095
diagonal:  Solving for T, Initial residual = 0, Final residual = 0, No Iterations 0
diagonal:  Solving for T, Initial residual = 0, Final residual = 0, No Iterations 0
diagonal:  Solving for T, Initial residual = 0, Final residual = 0, No Iterations 0
diagonal:  Solving for T, Initial residual = 0, Final residual = 0, No Iterations 0
 T goes from min(T) [0 0 0 0 0 0 0] 8.28045e-21 to max(T) [0 0 0 0 0 0 0] 0.953834

ExecutionTime = 62.63 s  ClockTime = 1017 s

Time = 0.285
Courant Number mean: 0.185822 max: 0.364032
diagonal:  Solving for T, Initial residual = 0, Final residual = 0, No Iterations 0
diagonal:  Solving for T, Initial residual = 0, Final residual = 0, No Iterations 0
diagonal:  Solving for T, Initial residual = 0, Final residual = 0, No Iterations 0
diagonal:  Solving for T, Initial residual = 0, Final residual = 0, No Iterations 0
 T goes from min(T) [0 0 0 0 0 0 0] 8.3751e-21 to max(T) [0 0 0 0 0 0 0] 0.953952

ExecutionTime = 63.12 s  ClockTime = 1024 s

Time = 0.2875
Courant Number mean: 0.185802 max: 0.363963
diagonal:  Solving for T, Initial residual = 0, Final residual = 0, No Iterations 0
diagonal:  Solving for T, Initial residual = 0, Final residual = 0, No Iterations 0
diagonal:  Solving for T, Initial residual = 0, Final residual = 0, No Iterations 0
diagonal:  Solving for T, Initial residual = 0, Final residual = 0, No Iterations 0
 T goes from min(T) [0 0 0 0 0 0 0] 8.56587e-21 to max(T) [0 0 0 0 0 0 0] 0.953693

ExecutionTime = 63.62 s  ClockTime = 1031 s

Time = 0.29
Courant Number mean: 0.185779 max: 0.363887
diagonal:  Solving for T, Initial residual = 0, Final residual = 0, No Iterations 0
diagonal:  Solving for T, Initial residual = 0, Final residual = 0, No Iterations 0
diagonal:  Solving for T, Initial residual = 0, Final residual = 0, No Iterations 0
diagonal:  Solving for T, Initial residual = 0, Final residual = 0, No Iterations 0
 T goes from min(T) [0 0 0 0 0 0 0] 8.85337e-21 to max(T) [0 0 0 0 0 0 0] 0.953054

ExecutionTime = 64.11 s  ClockTime = 1037 s

Time = 0.2925
Courant Number mean: 0.185754 max: 0.363813
diagonal:  Solving for T, Initial residual = 0, Final residual = 0, No Iterations 0
diagonal:  Solving for T, Initial residual = 0, Final residual = 0, No Iterations 0
diagonal:  Solving for T, Initial residual = 0, Final residual = 0, No Iterations 0
diagonal:  Solving for T, Initial residual = 0, Final residual = 0, No Iterations 0
 T goes from min(T) [0 0 0 0 0 0 0] 8.95692e-21 to max(T) [0 0 0 0 0 0 0] 0.953078

ExecutionTime = 64.6 s  ClockTime = 1044 s

Time = 0.295
Courant Number mean: 0.185726 max: 0.363749
diagonal:  Solving for T, Initial residual = 0, Final residual = 0, No Iterations 0
diagonal:  Solving for T, Initial residual = 0, Final residual = 0, No Iterations 0
diagonal:  Solving for T, Initial residual = 0, Final residual = 0, No Iterations 0
diagonal:  Solving for T, Initial residual = 0, Final residual = 0, No Iterations 0
 T goes from min(T) [0 0 0 0 0 0 0] 8.63957e-21 to max(T) [0 0 0 0 0 0 0] 0.953772

ExecutionTime = 65.09 s  ClockTime = 1051 s

Time = 0.2975
Courant Number mean: 0.185696 max: 0.363679
diagonal:  Solving for T, Initial residual = 0, Final residual = 0, No Iterations 0
diagonal:  Solving for T, Initial residual = 0, Final residual = 0, No Iterations 0
diagonal:  Solving for T, Initial residual = 0, Final residual = 0, No Iterations 0
diagonal:  Solving for T, Initial residual = 0, Final residual = 0, No Iterations 0
 T goes from min(T) [0 0 0 0 0 0 0] 8.4194e-21 to max(T) [0 0 0 0 0 0 0] 0.954094

ExecutionTime = 65.57 s  ClockTime = 1058 s

Time = 0.3
Courant Number mean: 0.185662 max: 0.363601
diagonal:  Solving for T, Initial residual = 0, Final residual = 0, No Iterations 0
diagonal:  Solving for T, Initial residual = 0, Final residual = 0, No Iterations 0
diagonal:  Solving for T, Initial residual = 0, Final residual = 0, No Iterations 0
diagonal:  Solving for T, Initial residual = 0, Final residual = 0, No Iterations 0
 T goes from min(T) [0 0 0 0 0 0 0] 8.29536e-21 to max(T) [0 0 0 0 0 0 0] 0.954042

ExecutionTime = 66.08 s  ClockTime = 1065 s

Time = 0.3025
Courant Number mean: 0.18563 max: 0.363521
diagonal:  Solving for T, Initial residual = 0, Final residual = 0, No Iterations 0
diagonal:  Solving for T, Initial residual = 0, Final residual = 0, No Iterations 0
diagonal:  Solving for T, Initial residual = 0, Final residual = 0, No Iterations 0
diagonal:  Solving for T, Initial residual = 0, Final residual = 0, No Iterations 0
 T goes from min(T) [0 0 0 0 0 0 0] 8.26682e-21 to max(T) [0 0 0 0 0 0 0] 0.953632

ExecutionTime = 66.58 s  ClockTime = 1072 s

Time = 0.305
Courant Number mean: 0.185612 max: 0.363456
diagonal:  Solving for T, Initial residual = 0, Final residual = 0, No Iterations 0
diagonal:  Solving for T, Initial residual = 0, Final residual = 0, No Iterations 0
diagonal:  Solving for T, Initial residual = 0, Final residual = 0, No Iterations 0
diagonal:  Solving for T, Initial residual = 0, Final residual = 0, No Iterations 0
 T goes from min(T) [0 0 0 0 0 0 0] 8.33352e-21 to max(T) [0 0 0 0 0 0 0] 0.953485

ExecutionTime = 67.12 s  ClockTime = 1080 s

Time = 0.3075
Courant Number mean: 0.185591 max: 0.363384
diagonal:  Solving for T, Initial residual = 0, Final residual = 0, No Iterations 0
diagonal:  Solving for T, Initial residual = 0, Final residual = 0, No Iterations 0
diagonal:  Solving for T, Initial residual = 0, Final residual = 0, No Iterations 0
diagonal:  Solving for T, Initial residual = 0, Final residual = 0, No Iterations 0
 T goes from min(T) [0 0 0 0 0 0 0] 8.49561e-21 to max(T) [0 0 0 0 0 0 0] 0.953365

ExecutionTime = 67.62 s  ClockTime = 1087 s

Time = 0.31
Courant Number mean: 0.185568 max: 0.363306
diagonal:  Solving for T, Initial residual = 0, Final residual = 0, No Iterations 0
diagonal:  Solving for T, Initial residual = 0, Final residual = 0, No Iterations 0
diagonal:  Solving for T, Initial residual = 0, Final residual = 0, No Iterations 0
diagonal:  Solving for T, Initial residual = 0, Final residual = 0, No Iterations 0
 T goes from min(T) [0 0 0 0 0 0 0] 8.7536e-21 to max(T) [0 0 0 0 0 0 0] 0.953493

ExecutionTime = 68.12 s  ClockTime = 1094 s

Time = 0.3125
Courant Number mean: 0.185542 max: 0.36322
diagonal:  Solving for T, Initial residual = 0, Final residual = 0, No Iterations 0
diagonal:  Solving for T, Initial residual = 0, Final residual = 0, No Iterations 0
diagonal:  Solving for T, Initial residual = 0, Final residual = 0, No Iterations 0
diagonal:  Solving for T, Initial residual = 0, Final residual = 0, No Iterations 0
 T goes from min(T) [0 0 0 0 0 0 0] 9.05948e-21 to max(T) [0 0 0 0 0 0 0] 0.953732

ExecutionTime = 68.6 s  ClockTime = 1100 s

Time = 0.315
Courant Number mean: 0.185513 max: 0.363154
diagonal:  Solving for T, Initial residual = 0, Final residual = 0, No Iterations 0
diagonal:  Solving for T, Initial residual = 0, Final residual = 0, No Iterations 0
diagonal:  Solving for T, Initial residual = 0, Final residual = 0, No Iterations 0
diagonal:  Solving for T, Initial residual = 0, Final residual = 0, No Iterations 0
 T goes from min(T) [0 0 0 0 0 0 0] 8.71664e-21 to max(T) [0 0 0 0 0 0 0] 0.953914

ExecutionTime = 69.08 s  ClockTime = 1107 s

Time = 0.3175
Courant Number mean: 0.185482 max: 0.36308
diagonal:  Solving for T, Initial residual = 0, Final residual = 0, No Iterations 0
diagonal:  Solving for T, Initial residual = 0, Final residual = 0, No Iterations 0
diagonal:  Solving for T, Initial residual = 0, Final residual = 0, No Iterations 0
diagonal:  Solving for T, Initial residual = 0, Final residual = 0, No Iterations 0
 T goes from min(T) [0 0 0 0 0 0 0] 8.47072e-21 to max(T) [0 0 0 0 0 0 0] 0.954036

ExecutionTime = 69.56 s  ClockTime = 1113 s

Time = 0.32
Courant Number mean: 0.185448 max: 0.363
diagonal:  Solving for T, Initial residual = 0, Final residual = 0, No Iterations 0
diagonal:  Solving for T, Initial residual = 0, Final residual = 0, No Iterations 0
diagonal:  Solving for T, Initial residual = 0, Final residual = 0, No Iterations 0
diagonal:  Solving for T, Initial residual = 0, Final residual = 0, No Iterations 0
 T goes from min(T) [0 0 0 0 0 0 0] 8.32058e-21 to max(T) [0 0 0 0 0 0 0] 0.954028

ExecutionTime = 70.04 s  ClockTime = 1119 s

Time = 0.3225
Courant Number mean: 0.185411 max: 0.362913
diagonal:  Solving for T, Initial residual = 0, Final residual = 0, No Iterations 0
diagonal:  Solving for T, Initial residual = 0, Final residual = 0, No Iterations 0
diagonal:  Solving for T, Initial residual = 0, Final residual = 0, No Iterations 0
diagonal:  Solving for T, Initial residual = 0, Final residual = 0, No Iterations 0
 T goes from min(T) [0 0 0 0 0 0 0] 8.26546e-21 to max(T) [0 0 0 0 0 0 0] 0.953946

ExecutionTime = 70.53 s  ClockTime = 1126 s

Time = 0.325
Courant Number mean: 0.185389 max: 0.362841
diagonal:  Solving for T, Initial residual = 0, Final residual = 0, No Iterations 0
diagonal:  Solving for T, Initial residual = 0, Final residual = 0, No Iterations 0
diagonal:  Solving for T, Initial residual = 0, Final residual = 0, No Iterations 0
diagonal:  Solving for T, Initial residual = 0, Final residual = 0, No Iterations 0
 T goes from min(T) [0 0 0 0 0 0 0] 8.30502e-21 to max(T) [0 0 0 0 0 0 0] 0.953633

ExecutionTime = 71.01 s  ClockTime = 1132 s

Time = 0.3275
Courant Number mean: 0.185367 max: 0.362767
diagonal:  Solving for T, Initial residual = 0, Final residual = 0, No Iterations 0
diagonal:  Solving for T, Initial residual = 0, Final residual = 0, No Iterations 0
diagonal:  Solving for T, Initial residual = 0, Final residual = 0, No Iterations 0
diagonal:  Solving for T, Initial residual = 0, Final residual = 0, No Iterations 0
 T goes from min(T) [0 0 0 0 0 0 0] 8.43931e-21 to max(T) [0 0 0 0 0 0 0] 0.953253

ExecutionTime = 71.49 s  ClockTime = 1138 s

Time = 0.33
Courant Number mean: 0.185342 max: 0.362685
diagonal:  Solving for T, Initial residual = 0, Final residual = 0, No Iterations 0
diagonal:  Solving for T, Initial residual = 0, Final residual = 0, No Iterations 0
diagonal:  Solving for T, Initial residual = 0, Final residual = 0, No Iterations 0
diagonal:  Solving for T, Initial residual = 0, Final residual = 0, No Iterations 0
 T goes from min(T) [0 0 0 0 0 0 0] 8.66875e-21 to max(T) [0 0 0 0 0 0 0] 0.953572

ExecutionTime = 71.98 s  ClockTime = 1145 s

Time = 0.3325
Courant Number mean: 0.185316 max: 0.362597
diagonal:  Solving for T, Initial residual = 0, Final residual = 0, No Iterations 0
diagonal:  Solving for T, Initial residual = 0, Final residual = 0, No Iterations 0
diagonal:  Solving for T, Initial residual = 0, Final residual = 0, No Iterations 0
diagonal:  Solving for T, Initial residual = 0, Final residual = 0, No Iterations 0
 T goes from min(T) [0 0 0 0 0 0 0] 8.99419e-21 to max(T) [0 0 0 0 0 0 0] 0.953842

ExecutionTime = 72.46 s  ClockTime = 1151 s

Time = 0.335
Courant Number mean: 0.185286 max: 0.362519
diagonal:  Solving for T, Initial residual = 0, Final residual = 0, No Iterations 0
diagonal:  Solving for T, Initial residual = 0, Final residual = 0, No Iterations 0
diagonal:  Solving for T, Initial residual = 0, Final residual = 0, No Iterations 0
diagonal:  Solving for T, Initial residual = 0, Final residual = 0, No Iterations 0
 T goes from min(T) [0 0 0 0 0 0 0] 8.8037e-21 to max(T) [0 0 0 0 0 0 0] 0.954108

ExecutionTime = 72.94 s  ClockTime = 1157 s

Time = 0.3375
Courant Number mean: 0.185254 max: 0.362443
diagonal:  Solving for T, Initial residual = 0, Final residual = 0, No Iterations 0
diagonal:  Solving for T, Initial residual = 0, Final residual = 0, No Iterations 0
diagonal:  Solving for T, Initial residual = 0, Final residual = 0, No Iterations 0
diagonal:  Solving for T, Initial residual = 0, Final residual = 0, No Iterations 0
 T goes from min(T) [0 0 0 0 0 0 0] 8.53252e-21 to max(T) [0 0 0 0 0 0 0] 0.954039

ExecutionTime = 73.41 s  ClockTime = 1163 s

Time = 0.34
Courant Number mean: 0.185219 max: 0.36236
diagonal:  Solving for T, Initial residual = 0, Final residual = 0, No Iterations 0
diagonal:  Solving for T, Initial residual = 0, Final residual = 0, No Iterations 0
diagonal:  Solving for T, Initial residual = 0, Final residual = 0, No Iterations 0
diagonal:  Solving for T, Initial residual = 0, Final residual = 0, No Iterations 0
 T goes from min(T) [0 0 0 0 0 0 0] 8.35684e-21 to max(T) [0 0 0 0 0 0 0] 0.953891

ExecutionTime = 73.9 s  ClockTime = 1169 s

Time = 0.3425
Courant Number mean: 0.185182 max: 0.362271
diagonal:  Solving for T, Initial residual = 0, Final residual = 0, No Iterations 0
diagonal:  Solving for T, Initial residual = 0, Final residual = 0, No Iterations 0
diagonal:  Solving for T, Initial residual = 0, Final residual = 0, No Iterations 0
diagonal:  Solving for T, Initial residual = 0, Final residual = 0, No Iterations 0
 T goes from min(T) [0 0 0 0 0 0 0] 8.27579e-21 to max(T) [0 0 0 0 0 0 0] 0.953665

ExecutionTime = 74.37 s  ClockTime = 1176 s

Time = 0.345
Courant Number mean: 0.185152 max: 0.362187
diagonal:  Solving for T, Initial residual = 0, Final residual = 0, No Iterations 0
diagonal:  Solving for T, Initial residual = 0, Final residual = 0, No Iterations 0
diagonal:  Solving for T, Initial residual = 0, Final residual = 0, No Iterations 0
diagonal:  Solving for T, Initial residual = 0, Final residual = 0, No Iterations 0
 T goes from min(T) [0 0 0 0 0 0 0] 8.28893e-21 to max(T) [0 0 0 0 0 0 0] 0.953483

ExecutionTime = 74.88 s  ClockTime = 1182 s

Time = 0.3475
Courant Number mean: 0.185129 max: 0.36211
diagonal:  Solving for T, Initial residual = 0, Final residual = 0, No Iterations 0
diagonal:  Solving for T, Initial residual = 0, Final residual = 0, No Iterations 0
diagonal:  Solving for T, Initial residual = 0, Final residual = 0, No Iterations 0
diagonal:  Solving for T, Initial residual = 0, Final residual = 0, No Iterations 0
 T goes from min(T) [0 0 0 0 0 0 0] 8.3962e-21 to max(T) [0 0 0 0 0 0 0] 0.953323

ExecutionTime = 75.36 s  ClockTime = 1188 s

Time = 0.35
Courant Number mean: 0.185103 max: 0.362026
diagonal:  Solving for T, Initial residual = 0, Final residual = 0, No Iterations 0
diagonal:  Solving for T, Initial residual = 0, Final residual = 0, No Iterations 0
diagonal:  Solving for T, Initial residual = 0, Final residual = 0, No Iterations 0
diagonal:  Solving for T, Initial residual = 0, Final residual = 0, No Iterations 0
 T goes from min(T) [0 0 0 0 0 0 0] 8.59796e-21 to max(T) [0 0 0 0 0 0 0] 0.953717

ExecutionTime = 75.83 s  ClockTime = 1195 s

Time = 0.3525
Courant Number mean: 0.185076 max: 0.361935
diagonal:  Solving for T, Initial residual = 0, Final residual = 0, No Iterations 0
diagonal:  Solving for T, Initial residual = 0, Final residual = 0, No Iterations 0
diagonal:  Solving for T, Initial residual = 0, Final residual = 0, No Iterations 0
diagonal:  Solving for T, Initial residual = 0, Final residual = 0, No Iterations 0
 T goes from min(T) [0 0 0 0 0 0 0] 8.89495e-21 to max(T) [0 0 0 0 0 0 0] 0.95374

ExecutionTime = 76.31 s  ClockTime = 1201 s

Time = 0.355
Courant Number mean: 0.185045 max: 0.361845
diagonal:  Solving for T, Initial residual = 0, Final residual = 0, No Iterations 0
diagonal:  Solving for T, Initial residual = 0, Final residual = 0, No Iterations 0
diagonal:  Solving for T, Initial residual = 0, Final residual = 0, No Iterations 0
diagonal:  Solving for T, Initial residual = 0, Final residual = 0, No Iterations 0
 T goes from min(T) [0 0 0 0 0 0 0] 8.90038e-21 to max(T) [0 0 0 0 0 0 0] 0.953471

ExecutionTime = 76.79 s  ClockTime = 1207 s

Time = 0.3575
Courant Number mean: 0.185012 max: 0.361767
diagonal:  Solving for T, Initial residual = 0, Final residual = 0, No Iterations 0
diagonal:  Solving for T, Initial residual = 0, Final residual = 0, No Iterations 0
diagonal:  Solving for T, Initial residual = 0, Final residual = 0, No Iterations 0
diagonal:  Solving for T, Initial residual = 0, Final residual = 0, No Iterations 0
 T goes from min(T) [0 0 0 0 0 0 0] 8.60437e-21 to max(T) [0 0 0 0 0 0 0] 0.953943

ExecutionTime = 77.27 s  ClockTime = 1213 s

Time = 0.36
Courant Number mean: 0.184976 max: 0.361681
diagonal:  Solving for T, Initial residual = 0, Final residual = 0, No Iterations 0
diagonal:  Solving for T, Initial residual = 0, Final residual = 0, No Iterations 0
diagonal:  Solving for T, Initial residual = 0, Final residual = 0, No Iterations 0
diagonal:  Solving for T, Initial residual = 0, Final residual = 0, No Iterations 0
 T goes from min(T) [0 0 0 0 0 0 0] 8.40364e-21 to max(T) [0 0 0 0 0 0 0] 0.954038

ExecutionTime = 77.76 s  ClockTime = 1220 s

Time = 0.3625
Courant Number mean: 0.184938 max: 0.361589
diagonal:  Solving for T, Initial residual = 0, Final residual = 0, No Iterations 0
diagonal:  Solving for T, Initial residual = 0, Final residual = 0, No Iterations 0
diagonal:  Solving for T, Initial residual = 0, Final residual = 0, No Iterations 0
diagonal:  Solving for T, Initial residual = 0, Final residual = 0, No Iterations 0
 T goes from min(T) [0 0 0 0 0 0 0] 8.29724e-21 to max(T) [0 0 0 0 0 0 0] 0.953752

ExecutionTime = 78.26 s  ClockTime = 1226 s

Time = 0.365
Courant Number mean: 0.184901 max: 0.361494
diagonal:  Solving for T, Initial residual = 0, Final residual = 0, No Iterations 0
diagonal:  Solving for T, Initial residual = 0, Final residual = 0, No Iterations 0
diagonal:  Solving for T, Initial residual = 0, Final residual = 0, No Iterations 0
diagonal:  Solving for T, Initial residual = 0, Final residual = 0, No Iterations 0
 T goes from min(T) [0 0 0 0 0 0 0] 8.2846e-21 to max(T) [0 0 0 0 0 0 0] 0.953085

ExecutionTime = 78.74 s  ClockTime = 1233 s

Time = 0.3675
Courant Number mean: 0.184877 max: 0.361414
diagonal:  Solving for T, Initial residual = 0, Final residual = 0, No Iterations 0
diagonal:  Solving for T, Initial residual = 0, Final residual = 0, No Iterations 0
diagonal:  Solving for T, Initial residual = 0, Final residual = 0, No Iterations 0
diagonal:  Solving for T, Initial residual = 0, Final residual = 0, No Iterations 0
 T goes from min(T) [0 0 0 0 0 0 0] 8.36559e-21 to max(T) [0 0 0 0 0 0 0] 0.953213

ExecutionTime = 79.24 s  ClockTime = 1239 s

Time = 0.37
Courant Number mean: 0.184851 max: 0.361327
diagonal:  Solving for T, Initial residual = 0, Final residual = 0, No Iterations 0
diagonal:  Solving for T, Initial residual = 0, Final residual = 0, No Iterations 0
diagonal:  Solving for T, Initial residual = 0, Final residual = 0, No Iterations 0
diagonal:  Solving for T, Initial residual = 0, Final residual = 0, No Iterations 0
 T goes from min(T) [0 0 0 0 0 0 0] 8.54045e-21 to max(T) [0 0 0 0 0 0 0] 0.953597

ExecutionTime = 79.73 s  ClockTime = 1245 s

Time = 0.3725
Courant Number mean: 0.184822 max: 0.361234
diagonal:  Solving for T, Initial residual = 0, Final residual = 0, No Iterations 0
diagonal:  Solving for T, Initial residual = 0, Final residual = 0, No Iterations 0
diagonal:  Solving for T, Initial residual = 0, Final residual = 0, No Iterations 0
diagonal:  Solving for T, Initial residual = 0, Final residual = 0, No Iterations 0
 T goes from min(T) [0 0 0 0 0 0 0] 8.80983e-21 to max(T) [0 0 0 0 0 0 0] 0.953858

ExecutionTime = 80.22 s  ClockTime = 1252 s

Time = 0.375
Courant Number mean: 0.184791 max: 0.361133
diagonal:  Solving for T, Initial residual = 0, Final residual = 0, No Iterations 0
diagonal:  Solving for T, Initial residual = 0, Final residual = 0, No Iterations 0
diagonal:  Solving for T, Initial residual = 0, Final residual = 0, No Iterations 0
diagonal:  Solving for T, Initial residual = 0, Final residual = 0, No Iterations 0
 T goes from min(T) [0 0 0 0 0 0 0] 9.00634e-21 to max(T) [0 0 0 0 0 0 0] 0.954123

ExecutionTime = 80.7 s  ClockTime = 1258 s

Time = 0.3775
Courant Number mean: 0.184757 max: 0.361052
diagonal:  Solving for T, Initial residual = 0, Final residual = 0, No Iterations 0
diagonal:  Solving for T, Initial residual = 0, Final residual = 0, No Iterations 0
diagonal:  Solving for T, Initial residual = 0, Final residual = 0, No Iterations 0
diagonal:  Solving for T, Initial residual = 0, Final residual = 0, No Iterations 0
 T goes from min(T) [0 0 0 0 0 0 0] 8.68587e-21 to max(T) [0 0 0 0 0 0 0] 0.954022

[...]
 T goes from min(T) [0 0 0 0 0 0 0] -0.0975417 to max(T) [0 0 0 0 0 0 0] 0.902013

ExecutionTime = 1176.18 s  ClockTime = 5284 s

Time = 5.9075
Courant Number mean: 0.173623 max: 0.328757
diagonal:  Solving for T, Initial residual = 0, Final residual = 0, No Iterations 0
diagonal:  Solving for T, Initial residual = 0, Final residual = 0, No Iterations 0
diagonal:  Solving for T, Initial residual = 0, Final residual = 0, No Iterations 0
diagonal:  Solving for T, Initial residual = 0, Final residual = 0, No Iterations 0
 T goes from min(T) [0 0 0 0 0 0 0] -0.0975925 to max(T) [0 0 0 0 0 0 0] 0.901928

ExecutionTime = 1176.7 s  ClockTime = 5285 s

Time = 5.91
Courant Number mean: 0.17356 max: 0.328552
diagonal:  Solving for T, Initial residual = 0, Final residual = 0, No Iterations 0
diagonal:  Solving for T, Initial residual = 0, Final residual = 0, No Iterations 0
diagonal:  Solving for T, Initial residual = 0, Final residual = 0, No Iterations 0
diagonal:  Solving for T, Initial residual = 0, Final residual = 0, No Iterations 0
 T goes from min(T) [0 0 0 0 0 0 0] -0.0975103 to max(T) [0 0 0 0 0 0 0] 0.901795

ExecutionTime = 1177.18 s  ClockTime = 5286 s

Time = 5.9125
Courant Number mean: 0.173495 max: 0.328342
diagonal:  Solving for T, Initial residual = 0, Final residual = 0, No Iterations 0
diagonal:  Solving for T, Initial residual = 0, Final residual = 0, No Iterations 0
diagonal:  Solving for T, Initial residual = 0, Final residual = 0, No Iterations 0
diagonal:  Solving for T, Initial residual = 0, Final residual = 0, No Iterations 0
 T goes from min(T) [0 0 0 0 0 0 0] -0.097292 to max(T) [0 0 0 0 0 0 0] 0.901616

ExecutionTime = 1177.65 s  ClockTime = 5287 s

Time = 5.915
Courant Number mean: 0.173428 max: 0.328125
diagonal:  Solving for T, Initial residual = 0, Final residual = 0, No Iterations 0
diagonal:  Solving for T, Initial residual = 0, Final residual = 0, No Iterations 0
diagonal:  Solving for T, Initial residual = 0, Final residual = 0, No Iterations 0
diagonal:  Solving for T, Initial residual = 0, Final residual = 0, No Iterations 0
 T goes from min(T) [0 0 0 0 0 0 0] -0.096897 to max(T) [0 0 0 0 0 0 0] 0.901393

ExecutionTime = 1178.13 s  ClockTime = 5288 s

Time = 5.9175
Courant Number mean: 0.173359 max: 0.32791
diagonal:  Solving for T, Initial residual = 0, Final residual = 0, No Iterations 0
diagonal:  Solving for T, Initial residual = 0, Final residual = 0, No Iterations 0
diagonal:  Solving for T, Initial residual = 0, Final residual = 0, No Iterations 0
diagonal:  Solving for T, Initial residual = 0, Final residual = 0, No Iterations 0
 T goes from min(T) [0 0 0 0 0 0 0] -0.0964951 to max(T) [0 0 0 0 0 0 0] 0.901128

ExecutionTime = 1178.61 s  ClockTime = 5289 s

Time = 5.92
Courant Number mean: 0.173288 max: 0.327704
diagonal:  Solving for T, Initial residual = 0, Final residual = 0, No Iterations 0
diagonal:  Solving for T, Initial residual = 0, Final residual = 0, No Iterations 0
diagonal:  Solving for T, Initial residual = 0, Final residual = 0, No Iterations 0
diagonal:  Solving for T, Initial residual = 0, Final residual = 0, No Iterations 0
 T goes from min(T) [0 0 0 0 0 0 0] -0.0964401 to max(T) [0 0 0 0 0 0 0] 0.900882

ExecutionTime = 1179.08 s  ClockTime = 5290 s

Time = 5.9225
Courant Number mean: 0.173214 max: 0.327493
diagonal:  Solving for T, Initial residual = 0, Final residual = 0, No Iterations 0
diagonal:  Solving for T, Initial residual = 0, Final residual = 0, No Iterations 0
diagonal:  Solving for T, Initial residual = 0, Final residual = 0, No Iterations 0
diagonal:  Solving for T, Initial residual = 0, Final residual = 0, No Iterations 0
 T goes from min(T) [0 0 0 0 0 0 0] -0.0968465 to max(T) [0 0 0 0 0 0 0] 0.900611

ExecutionTime = 1179.56 s  ClockTime = 5291 s

Time = 5.925
Courant Number mean: 0.173139 max: 0.327275
diagonal:  Solving for T, Initial residual = 0, Final residual = 0, No Iterations 0
diagonal:  Solving for T, Initial residual = 0, Final residual = 0, No Iterations 0
diagonal:  Solving for T, Initial residual = 0, Final residual = 0, No Iterations 0
diagonal:  Solving for T, Initial residual = 0, Final residual = 0, No Iterations 0
 T goes from min(T) [0 0 0 0 0 0 0] -0.0972385 to max(T) [0 0 0 0 0 0 0] 0.900302

ExecutionTime = 1180.06 s  ClockTime = 5292 s

Time = 5.9275
Courant Number mean: 0.173064 max: 0.327055
diagonal:  Solving for T, Initial residual = 0, Final residual = 0, No Iterations 0
diagonal:  Solving for T, Initial residual = 0, Final residual = 0, No Iterations 0
diagonal:  Solving for T, Initial residual = 0, Final residual = 0, No Iterations 0
diagonal:  Solving for T, Initial residual = 0, Final residual = 0, No Iterations 0
 T goes from min(T) [0 0 0 0 0 0 0] -0.0973064 to max(T) [0 0 0 0 0 0 0] 0.899956

ExecutionTime = 1180.68 s  ClockTime = 5293 s

Time = 5.93
Courant Number mean: 0.173001 max: 0.326848
diagonal:  Solving for T, Initial residual = 0, Final residual = 0, No Iterations 0
diagonal:  Solving for T, Initial residual = 0, Final residual = 0, No Iterations 0
diagonal:  Solving for T, Initial residual = 0, Final residual = 0, No Iterations 0
diagonal:  Solving for T, Initial residual = 0, Final residual = 0, No Iterations 0
 T goes from min(T) [0 0 0 0 0 0 0] -0.0973705 to max(T) [0 0 0 0 0 0 0] 0.899574

ExecutionTime = 1181.36 s  ClockTime = 5294 s

Time = 5.9325
Courant Number mean: 0.172935 max: 0.326635
diagonal:  Solving for T, Initial residual = 0, Final residual = 0, No Iterations 0
diagonal:  Solving for T, Initial residual = 0, Final residual = 0, No Iterations 0
diagonal:  Solving for T, Initial residual = 0, Final residual = 0, No Iterations 0
diagonal:  Solving for T, Initial residual = 0, Final residual = 0, No Iterations 0
 T goes from min(T) [0 0 0 0 0 0 0] -0.0971828 to max(T) [0 0 0 0 0 0 0] 0.899156

ExecutionTime = 1182 s  ClockTime = 5295 s

Time = 5.935
Courant Number mean: 0.172868 max: 0.326416
diagonal:  Solving for T, Initial residual = 0, Final residual = 0, No Iterations 0
diagonal:  Solving for T, Initial residual = 0, Final residual = 0, No Iterations 0
diagonal:  Solving for T, Initial residual = 0, Final residual = 0, No Iterations 0
diagonal:  Solving for T, Initial residual = 0, Final residual = 0, No Iterations 0
 T goes from min(T) [0 0 0 0 0 0 0] -0.0969732 to max(T) [0 0 0 0 0 0 0] 0.898705

ExecutionTime = 1182.57 s  ClockTime = 5297 s

Time = 5.9375
Courant Number mean: 0.172799 max: 0.326192
diagonal:  Solving for T, Initial residual = 0, Final residual = 0, No Iterations 0
diagonal:  Solving for T, Initial residual = 0, Final residual = 0, No Iterations 0
diagonal:  Solving for T, Initial residual = 0, Final residual = 0, No Iterations 0
diagonal:  Solving for T, Initial residual = 0, Final residual = 0, No Iterations 0
 T goes from min(T) [0 0 0 0 0 0 0] -0.0965972 to max(T) [0 0 0 0 0 0 0] 0.898222

ExecutionTime = 1183.08 s  ClockTime = 5298 s

Time = 5.94
Courant Number mean: 0.172727 max: 0.325984
diagonal:  Solving for T, Initial residual = 0, Final residual = 0, No Iterations 0
diagonal:  Solving for T, Initial residual = 0, Final residual = 0, No Iterations 0
diagonal:  Solving for T, Initial residual = 0, Final residual = 0, No Iterations 0
diagonal:  Solving for T, Initial residual = 0, Final residual = 0, No Iterations 0
 T goes from min(T) [0 0 0 0 0 0 0] -0.0961744 to max(T) [0 0 0 0 0 0 0] 0.897706

ExecutionTime = 1183.57 s  ClockTime = 5299 s

Time = 5.9425
Courant Number mean: 0.172653 max: 0.32577
diagonal:  Solving for T, Initial residual = 0, Final residual = 0, No Iterations 0
diagonal:  Solving for T, Initial residual = 0, Final residual = 0, No Iterations 0
diagonal:  Solving for T, Initial residual = 0, Final residual = 0, No Iterations 0
diagonal:  Solving for T, Initial residual = 0, Final residual = 0, No Iterations 0
 T goes from min(T) [0 0 0 0 0 0 0] -0.0964529 to max(T) [0 0 0 0 0 0 0] 0.89716

ExecutionTime = 1184.05 s  ClockTime = 5300 s

Time = 5.945
Courant Number mean: 0.172578 max: 0.32555
diagonal:  Solving for T, Initial residual = 0, Final residual = 0, No Iterations 0
diagonal:  Solving for T, Initial residual = 0, Final residual = 0, No Iterations 0
diagonal:  Solving for T, Initial residual = 0, Final residual = 0, No Iterations 0
diagonal:  Solving for T, Initial residual = 0, Final residual = 0, No Iterations 0
 T goes from min(T) [0 0 0 0 0 0 0] -0.0968688 to max(T) [0 0 0 0 0 0 0] 0.896585

ExecutionTime = 1184.55 s  ClockTime = 5301 s

Time = 5.9475
Courant Number mean: 0.1725 max: 0.325324
diagonal:  Solving for T, Initial residual = 0, Final residual = 0, No Iterations 0
diagonal:  Solving for T, Initial residual = 0, Final residual = 0, No Iterations 0
diagonal:  Solving for T, Initial residual = 0, Final residual = 0, No Iterations 0
diagonal:  Solving for T, Initial residual = 0, Final residual = 0, No Iterations 0
 T goes from min(T) [0 0 0 0 0 0 0] -0.0970209 to max(T) [0 0 0 0 0 0 0] 0.896854

ExecutionTime = 1185.07 s  ClockTime = 5302 s

Time = 5.95
Courant Number mean: 0.172434 max: 0.325111
diagonal:  Solving for T, Initial residual = 0, Final residual = 0, No Iterations 0
diagonal:  Solving for T, Initial residual = 0, Final residual = 0, No Iterations 0
diagonal:  Solving for T, Initial residual = 0, Final residual = 0, No Iterations 0
diagonal:  Solving for T, Initial residual = 0, Final residual = 0, No Iterations 0
 T goes from min(T) [0 0 0 0 0 0 0] -0.0971699 to max(T) [0 0 0 0 0 0 0] 0.89749

ExecutionTime = 1185.62 s  ClockTime = 5303 s

Time = 5.9525
Courant Number mean: 0.172368 max: 0.324896
diagonal:  Solving for T, Initial residual = 0, Final residual = 0, No Iterations 0
diagonal:  Solving for T, Initial residual = 0, Final residual = 0, No Iterations 0
diagonal:  Solving for T, Initial residual = 0, Final residual = 0, No Iterations 0
diagonal:  Solving for T, Initial residual = 0, Final residual = 0, No Iterations 0
 T goes from min(T) [0 0 0 0 0 0 0] -0.09703 to max(T) [0 0 0 0 0 0 0] 0.898046

ExecutionTime = 1186.18 s  ClockTime = 5304 s

Time = 5.955
Courant Number mean: 0.172301 max: 0.324675
diagonal:  Solving for T, Initial residual = 0, Final residual = 0, No Iterations 0
diagonal:  Solving for T, Initial residual = 0, Final residual = 0, No Iterations 0
diagonal:  Solving for T, Initial residual = 0, Final residual = 0, No Iterations 0
diagonal:  Solving for T, Initial residual = 0, Final residual = 0, No Iterations 0
 T goes from min(T) [0 0 0 0 0 0 0] -0.0969813 to max(T) [0 0 0 0 0 0 0] 0.898524

ExecutionTime = 1186.68 s  ClockTime = 5305 s

Time = 5.9575
Courant Number mean: 0.172232 max: 0.324448
diagonal:  Solving for T, Initial residual = 0, Final residual = 0, No Iterations 0
diagonal:  Solving for T, Initial residual = 0, Final residual = 0, No Iterations 0
diagonal:  Solving for T, Initial residual = 0, Final residual = 0, No Iterations 0
diagonal:  Solving for T, Initial residual = 0, Final residual = 0, No Iterations 0
 T goes from min(T) [0 0 0 0 0 0 0] -0.0966071 to max(T) [0 0 0 0 0 0 0] 0.898928

ExecutionTime = 1187.19 s  ClockTime = 5306 s

Time = 5.96
Courant Number mean: 0.17216 max: 0.32423
diagonal:  Solving for T, Initial residual = 0, Final residual = 0, No Iterations 0
diagonal:  Solving for T, Initial residual = 0, Final residual = 0, No Iterations 0
diagonal:  Solving for T, Initial residual = 0, Final residual = 0, No Iterations 0
diagonal:  Solving for T, Initial residual = 0, Final residual = 0, No Iterations 0
 T goes from min(T) [0 0 0 0 0 0 0] -0.096411 to max(T) [0 0 0 0 0 0 0] 0.899257

ExecutionTime = 1187.68 s  ClockTime = 5307 s

Time = 5.9625
Courant Number mean: 0.172086 max: 0.324013
diagonal:  Solving for T, Initial residual = 0, Final residual = 0, No Iterations 0
diagonal:  Solving for T, Initial residual = 0, Final residual = 0, No Iterations 0
diagonal:  Solving for T, Initial residual = 0, Final residual = 0, No Iterations 0
diagonal:  Solving for T, Initial residual = 0, Final residual = 0, No Iterations 0
 T goes from min(T) [0 0 0 0 0 0 0] -0.0960029 to max(T) [0 0 0 0 0 0 0] 0.899516

ExecutionTime = 1188.23 s  ClockTime = 5308 s

Time = 5.965
Courant Number mean: 0.17201 max: 0.323791
diagonal:  Solving for T, Initial residual = 0, Final residual = 0, No Iterations 0
diagonal:  Solving for T, Initial residual = 0, Final residual = 0, No Iterations 0
diagonal:  Solving for T, Initial residual = 0, Final residual = 0, No Iterations 0
diagonal:  Solving for T, Initial residual = 0, Final residual = 0, No Iterations 0
 T goes from min(T) [0 0 0 0 0 0 0] -0.0963861 to max(T) [0 0 0 0 0 0 0] 0.899705

ExecutionTime = 1188.72 s  ClockTime = 5309 s

Time = 5.9675
Courant Number mean: 0.171933 max: 0.323563
diagonal:  Solving for T, Initial residual = 0, Final residual = 0, No Iterations 0
diagonal:  Solving for T, Initial residual = 0, Final residual = 0, No Iterations 0
diagonal:  Solving for T, Initial residual = 0, Final residual = 0, No Iterations 0
diagonal:  Solving for T, Initial residual = 0, Final residual = 0, No Iterations 0
 T goes from min(T) [0 0 0 0 0 0 0] -0.0967288 to max(T) [0 0 0 0 0 0 0] 0.899828

ExecutionTime = 1189.21 s  ClockTime = 5310 s

Time = 5.97
Courant Number mean: 0.171861 max: 0.323341
diagonal:  Solving for T, Initial residual = 0, Final residual = 0, No Iterations 0
diagonal:  Solving for T, Initial residual = 0, Final residual = 0, No Iterations 0
diagonal:  Solving for T, Initial residual = 0, Final residual = 0, No Iterations 0
diagonal:  Solving for T, Initial residual = 0, Final residual = 0, No Iterations 0
 T goes from min(T) [0 0 0 0 0 0 0] -0.0968479 to max(T) [0 0 0 0 0 0 0] 0.899885

ExecutionTime = 1189.69 s  ClockTime = 5311 s

Time = 5.9725
Courant Number mean: 0.171795 max: 0.323123
diagonal:  Solving for T, Initial residual = 0, Final residual = 0, No Iterations 0
diagonal:  Solving for T, Initial residual = 0, Final residual = 0, No Iterations 0
diagonal:  Solving for T, Initial residual = 0, Final residual = 0, No Iterations 0
diagonal:  Solving for T, Initial residual = 0, Final residual = 0, No Iterations 0
 T goes from min(T) [0 0 0 0 0 0 0] -0.0969402 to max(T) [0 0 0 0 0 0 0] 0.89988

ExecutionTime = 1190.16 s  ClockTime = 5312 s

Time = 5.975
Courant Number mean: 0.171727 max: 0.3229
diagonal:  Solving for T, Initial residual = 0, Final residual = 0, No Iterations 0
diagonal:  Solving for T, Initial residual = 0, Final residual = 0, No Iterations 0
diagonal:  Solving for T, Initial residual = 0, Final residual = 0, No Iterations 0
diagonal:  Solving for T, Initial residual = 0, Final residual = 0, No Iterations 0
 T goes from min(T) [0 0 0 0 0 0 0] -0.0968462 to max(T) [0 0 0 0 0 0 0] 0.899813

ExecutionTime = 1190.64 s  ClockTime = 5313 s

Time = 5.9775
Courant Number mean: 0.171657 max: 0.322671
diagonal:  Solving for T, Initial residual = 0, Final residual = 0, No Iterations 0
diagonal:  Solving for T, Initial residual = 0, Final residual = 0, No Iterations 0
diagonal:  Solving for T, Initial residual = 0, Final residual = 0, No Iterations 0
diagonal:  Solving for T, Initial residual = 0, Final residual = 0, No Iterations 0
 T goes from min(T) [0 0 0 0 0 0 0] -0.0967445 to max(T) [0 0 0 0 0 0 0] 0.899688

ExecutionTime = 1191.16 s  ClockTime = 5314 s

Time = 5.98
Courant Number mean: 0.171585 max: 0.322443
diagonal:  Solving for T, Initial residual = 0, Final residual = 0, No Iterations 0
diagonal:  Solving for T, Initial residual = 0, Final residual = 0, No Iterations 0
diagonal:  Solving for T, Initial residual = 0, Final residual = 0, No Iterations 0
diagonal:  Solving for T, Initial residual = 0, Final residual = 0, No Iterations 0
 T goes from min(T) [0 0 0 0 0 0 0] -0.0964686 to max(T) [0 0 0 0 0 0 0] 0.899506

ExecutionTime = 1191.68 s  ClockTime = 5315 s

Time = 5.9825
Courant Number mean: 0.171512 max: 0.322224
diagonal:  Solving for T, Initial residual = 0, Final residual = 0, No Iterations 0
diagonal:  Solving for T, Initial residual = 0, Final residual = 0, No Iterations 0
diagonal:  Solving for T, Initial residual = 0, Final residual = 0, No Iterations 0
diagonal:  Solving for T, Initial residual = 0, Final residual = 0, No Iterations 0
 T goes from min(T) [0 0 0 0 0 0 0] -0.0962339 to max(T) [0 0 0 0 0 0 0] 0.899268

ExecutionTime = 1192.24 s  ClockTime = 5316 s

Time = 5.985
Courant Number mean: 0.171436 max: 0.322
diagonal:  Solving for T, Initial residual = 0, Final residual = 0, No Iterations 0
diagonal:  Solving for T, Initial residual = 0, Final residual = 0, No Iterations 0
diagonal:  Solving for T, Initial residual = 0, Final residual = 0, No Iterations 0
diagonal:  Solving for T, Initial residual = 0, Final residual = 0, No Iterations 0
 T goes from min(T) [0 0 0 0 0 0 0] -0.0958805 to max(T) [0 0 0 0 0 0 0] 0.899045

ExecutionTime = 1192.91 s  ClockTime = 5317 s

Time = 5.9875
Courant Number mean: 0.171358 max: 0.32177
diagonal:  Solving for T, Initial residual = 0, Final residual = 0, No Iterations 0
diagonal:  Solving for T, Initial residual = 0, Final residual = 0, No Iterations 0
diagonal:  Solving for T, Initial residual = 0, Final residual = 0, No Iterations 0
diagonal:  Solving for T, Initial residual = 0, Final residual = 0, No Iterations 0
 T goes from min(T) [0 0 0 0 0 0 0] -0.0963022 to max(T) [0 0 0 0 0 0 0] 0.898778

ExecutionTime = 1193.4 s  ClockTime = 5318 s

Time = 5.99
Courant Number mean: 0.17128 max: 0.321538
diagonal:  Solving for T, Initial residual = 0, Final residual = 0, No Iterations 0
diagonal:  Solving for T, Initial residual = 0, Final residual = 0, No Iterations 0
diagonal:  Solving for T, Initial residual = 0, Final residual = 0, No Iterations 0
diagonal:  Solving for T, Initial residual = 0, Final residual = 0, No Iterations 0
 T goes from min(T) [0 0 0 0 0 0 0] -0.0964919 to max(T) [0 0 0 0 0 0 0] 0.898465

ExecutionTime = 1193.88 s  ClockTime = 5319 s

Time = 5.9925
Courant Number mean: 0.171214 max: 0.321318
diagonal:  Solving for T, Initial residual = 0, Final residual = 0, No Iterations 0
diagonal:  Solving for T, Initial residual = 0, Final residual = 0, No Iterations 0
diagonal:  Solving for T, Initial residual = 0, Final residual = 0, No Iterations 0
diagonal:  Solving for T, Initial residual = 0, Final residual = 0, No Iterations 0
 T goes from min(T) [0 0 0 0 0 0 0] -0.0966936 to max(T) [0 0 0 0 0 0 0] 0.898108

ExecutionTime = 1194.36 s  ClockTime = 5320 s

Time = 5.995
Courant Number mean: 0.171146 max: 0.321092
diagonal:  Solving for T, Initial residual = 0, Final residual = 0, No Iterations 0
diagonal:  Solving for T, Initial residual = 0, Final residual = 0, No Iterations 0
diagonal:  Solving for T, Initial residual = 0, Final residual = 0, No Iterations 0
diagonal:  Solving for T, Initial residual = 0, Final residual = 0, No Iterations 0
 T goes from min(T) [0 0 0 0 0 0 0] -0.0966728 to max(T) [0 0 0 0 0 0 0] 0.897708

ExecutionTime = 1194.86 s  ClockTime = 5321 s

Time = 5.9975
Courant Number mean: 0.171077 max: 0.320861
diagonal:  Solving for T, Initial residual = 0, Final residual = 0, No Iterations 0
diagonal:  Solving for T, Initial residual = 0, Final residual = 0, No Iterations 0
diagonal:  Solving for T, Initial residual = 0, Final residual = 0, No Iterations 0
diagonal:  Solving for T, Initial residual = 0, Final residual = 0, No Iterations 0
 T goes from min(T) [0 0 0 0 0 0 0] -0.0966889 to max(T) [0 0 0 0 0 0 0] 0.897267

ExecutionTime = 1195.34 s  ClockTime = 5322 s

Time = 6
Courant Number mean: 0.171005 max: 0.320624
diagonal:  Solving for T, Initial residual = 0, Final residual = 0, No Iterations 0
diagonal:  Solving for T, Initial residual = 0, Final residual = 0, No Iterations 0
diagonal:  Solving for T, Initial residual = 0, Final residual = 0, No Iterations 0
diagonal:  Solving for T, Initial residual = 0, Final residual = 0, No Iterations 0
 T goes from min(T) [0 0 0 0 0 0 0] -0.096516 to max(T) [0 0 0 0 0 0 0] 0.896786

ExecutionTime = 1195.91 s  ClockTime = 5323 s

End

