/*---------------------------------------------------------------------------*\
| =========                 |                                                 |
| \\      /  F ield         | OpenFOAM: The Open Source CFD Toolbox           |
|  \\    /   O peration     | Version:  dev                                   |
|   \\  /    A nd           | Web:      www.OpenFOAM.org                      |
|    \\/     M anipulation  |                                                 |
\*---------------------------------------------------------------------------*/
Build  : dev-90f39e0d894d
Exec   : scalarDeformationWithGhosts implicit -case orthogonal/120x60/c2_implicit
Date   : May 23 2017
Time   : 20:31:25
Host   : "sws02hw.private.rdg.ac.uk"
PID    : 22929
Case   : orthogonal/120x60/c2_implicit
nProcs : 1
sigFpe : Enabling floating point exception trapping (FOAM_SIGFPE).
fileModificationChecking : Monitoring run-time modified files using timeStampMaster (fileModificationSkew 10)
allowSystemOperations : Allowing user-supplied system call operations

// * * * * * * * * * * * * * * * * * * * * * * * * * * * * * * * * * * * * * //
Create time

Create mesh for time = 0

Reading field T

Reading fields phi (compulsory), U and Uf (optional)

Calculating owner stencils
Calculating neighbour stencils

Calculating scalar transport

Courant Number mean: 0.749011 max: 1.47058
Time = 0.02
Courant Number mean: 0.74867 max: 1.47055
DILUPBiCG:  Solving for T, Initial residual = 0.0269067, Final residual = 6.71441e-09, No Iterations 4
DILUPBiCG:  Solving for T, Initial residual = 0.000478184, Final residual = 5.84061e-09, No Iterations 3
DILUPBiCG:  Solving for T, Initial residual = 6.92768e-06, Final residual = 8.38184e-11, No Iterations 3
DILUPBiCG:  Solving for T, Initial residual = 2.27782e-07, Final residual = 5.0056e-09, No Iterations 1
 T goes from min(T) [0 0 0 0 0 0 0] 1.43119e-20 to max(T) [0 0 0 0 0 0 0] 0.953787

ExecutionTime = 2.18 s  ClockTime = 38 s

Time = 0.04
Courant Number mean: 0.748896 max: 1.47033
DILUPBiCG:  Solving for T, Initial residual = 0.0269006, Final residual = 6.55938e-09, No Iterations 4
DILUPBiCG:  Solving for T, Initial residual = 0.000479982, Final residual = 5.50806e-09, No Iterations 3
DILUPBiCG:  Solving for T, Initial residual = 7.03234e-06, Final residual = 8.54334e-11, No Iterations 3
DILUPBiCG:  Solving for T, Initial residual = 2.34511e-07, Final residual = 4.84008e-09, No Iterations 1
 T goes from min(T) [0 0 0 0 0 0 0] 1.86687e-20 to max(T) [0 0 0 0 0 0 0] 0.951806

ExecutionTime = 2.32 s  ClockTime = 41 s

Time = 0.06
Courant Number mean: 0.748493 max: 1.46998
DILUPBiCG:  Solving for T, Initial residual = 0.0269391, Final residual = 6.10735e-09, No Iterations 4
DILUPBiCG:  Solving for T, Initial residual = 0.000482792, Final residual = 5.10774e-09, No Iterations 3
DILUPBiCG:  Solving for T, Initial residual = 7.19753e-06, Final residual = 8.82784e-11, No Iterations 3
DILUPBiCG:  Solving for T, Initial residual = 2.45252e-07, Final residual = 4.71544e-09, No Iterations 1
 T goes from min(T) [0 0 0 0 0 0 0] 2.37199e-20 to max(T) [0 0 0 0 0 0 0] 0.951603

ExecutionTime = 2.45 s  ClockTime = 44 s

Time = 0.08
Courant Number mean: 0.74855 max: 1.46945
DILUPBiCG:  Solving for T, Initial residual = 0.0269709, Final residual = 5.31327e-09, No Iterations 4
DILUPBiCG:  Solving for T, Initial residual = 0.000486756, Final residual = 4.54348e-09, No Iterations 3
DILUPBiCG:  Solving for T, Initial residual = 7.41774e-06, Final residual = 9.19005e-11, No Iterations 3
DILUPBiCG:  Solving for T, Initial residual = 2.59218e-07, Final residual = 4.62289e-09, No Iterations 1
 T goes from min(T) [0 0 0 0 0 0 0] 2.42574e-20 to max(T) [0 0 0 0 0 0 0] 0.952794

ExecutionTime = 2.58 s  ClockTime = 46 s

Time = 0.1
Courant Number mean: 0.748085 max: 1.46878
DILUPBiCG:  Solving for T, Initial residual = 0.0269998, Final residual = 4.45593e-09, No Iterations 4
DILUPBiCG:  Solving for T, Initial residual = 0.000491745, Final residual = 3.91029e-09, No Iterations 3
DILUPBiCG:  Solving for T, Initial residual = 7.67997e-06, Final residual = 9.47129e-09, No Iterations 2
DILUPBiCG:  Solving for T, Initial residual = 2.79126e-07, Final residual = 4.50499e-09, No Iterations 1
 T goes from min(T) [0 0 0 0 0 0 0] 3.10904e-20 to max(T) [0 0 0 0 0 0 0] 0.954169

ExecutionTime = 2.72 s  ClockTime = 49 s

Time = 0.12
Courant Number mean: 0.747975 max: 1.46793
DILUPBiCG:  Solving for T, Initial residual = 0.0270317, Final residual = 3.82078e-09, No Iterations 4
DILUPBiCG:  Solving for T, Initial residual = 0.000497103, Final residual = 3.25234e-09, No Iterations 3
DILUPBiCG:  Solving for T, Initial residual = 7.98389e-06, Final residual = 9.00511e-09, No Iterations 2
DILUPBiCG:  Solving for T, Initial residual = 2.99562e-07, Final residual = 4.92198e-09, No Iterations 1
 T goes from min(T) [0 0 0 0 0 0 0] 3.22631e-20 to max(T) [0 0 0 0 0 0 0] 0.951834

ExecutionTime = 2.86 s  ClockTime = 51 s

Time = 0.14
Courant Number mean: 0.74745 max: 1.46694
DILUPBiCG:  Solving for T, Initial residual = 0.0270595, Final residual = 3.82826e-09, No Iterations 4
DILUPBiCG:  Solving for T, Initial residual = 0.000503796, Final residual = 2.64913e-09, No Iterations 3
DILUPBiCG:  Solving for T, Initial residual = 8.34688e-06, Final residual = 8.64874e-09, No Iterations 2
DILUPBiCG:  Solving for T, Initial residual = 3.23852e-07, Final residual = 5.51609e-09, No Iterations 1
 T goes from min(T) [0 0 0 0 0 0 0] 3.42237e-20 to max(T) [0 0 0 0 0 0 0] 0.955447

ExecutionTime = 3 s  ClockTime = 54 s

Time = 0.16
Courant Number mean: 0.747168 max: 1.46578
DILUPBiCG:  Solving for T, Initial residual = 0.0270633, Final residual = 1.58945e-09, No Iterations 5
DILUPBiCG:  Solving for T, Initial residual = 0.000510703, Final residual = 2.15609e-09, No Iterations 3
DILUPBiCG:  Solving for T, Initial residual = 8.73353e-06, Final residual = 8.35122e-09, No Iterations 2
DILUPBiCG:  Solving for T, Initial residual = 3.50107e-07, Final residual = 6.14638e-09, No Iterations 1
 T goes from min(T) [0 0 0 0 0 0 0] 4.23452e-20 to max(T) [0 0 0 0 0 0 0] 0.953381

ExecutionTime = 3.14 s  ClockTime = 57 s

Time = 0.18
Courant Number mean: 0.746583 max: 1.46446
DILUPBiCG:  Solving for T, Initial residual = 0.0270853, Final residual = 1.36485e-09, No Iterations 4
DILUPBiCG:  Solving for T, Initial residual = 0.000517799, Final residual = 2.39191e-09, No Iterations 3
DILUPBiCG:  Solving for T, Initial residual = 9.17257e-06, Final residual = 8.1113e-09, No Iterations 2
DILUPBiCG:  Solving for T, Initial residual = 3.79763e-07, Final residual = 6.79975e-09, No Iterations 1
 T goes from min(T) [0 0 0 0 0 0 0] 3.89578e-20 to max(T) [0 0 0 0 0 0 0] 0.955034

ExecutionTime = 3.27 s  ClockTime = 59 s

Time = 0.2
Courant Number mean: 0.746131 max: 1.46299
DILUPBiCG:  Solving for T, Initial residual = 0.0270845, Final residual = 1.38735e-09, No Iterations 4
DILUPBiCG:  Solving for T, Initial residual = 0.000525814, Final residual = 2.8607e-09, No Iterations 3
DILUPBiCG:  Solving for T, Initial residual = 9.63328e-06, Final residual = 7.87718e-09, No Iterations 2
DILUPBiCG:  Solving for T, Initial residual = 4.12287e-07, Final residual = 7.43945e-09, No Iterations 1
 T goes from min(T) [0 0 0 0 0 0 0] 4.60496e-20 to max(T) [0 0 0 0 0 0 0] 0.955581

ExecutionTime = 3.4 s  ClockTime = 62 s

Time = 0.22
Courant Number mean: 0.745487 max: 1.46136
DILUPBiCG:  Solving for T, Initial residual = 0.0271028, Final residual = 1.76592e-09, No Iterations 4
DILUPBiCG:  Solving for T, Initial residual = 0.000533668, Final residual = 3.20992e-09, No Iterations 3
DILUPBiCG:  Solving for T, Initial residual = 1.0166e-05, Final residual = 7.71188e-09, No Iterations 2
DILUPBiCG:  Solving for T, Initial residual = 4.46752e-07, Final residual = 8.14052e-09, No Iterations 1
 T goes from min(T) [0 0 0 0 0 0 0] 4.52744e-20 to max(T) [0 0 0 0 0 0 0] 0.953503

ExecutionTime = 3.53 s  ClockTime = 64 s

Time = 0.24
Courant Number mean: 0.744866 max: 1.45956
DILUPBiCG:  Solving for T, Initial residual = 0.0270902, Final residual = 2.19764e-09, No Iterations 4
DILUPBiCG:  Solving for T, Initial residual = 0.000543096, Final residual = 3.44625e-09, No Iterations 3
DILUPBiCG:  Solving for T, Initial residual = 1.07156e-05, Final residual = 7.52602e-09, No Iterations 2
DILUPBiCG:  Solving for T, Initial residual = 4.85102e-07, Final residual = 8.82645e-09, No Iterations 1
 T goes from min(T) [0 0 0 0 0 0 0] 4.73538e-20 to max(T) [0 0 0 0 0 0 0] 0.956239

ExecutionTime = 3.66 s  ClockTime = 67 s

Time = 0.26
Courant Number mean: 0.744162 max: 1.45762
DILUPBiCG:  Solving for T, Initial residual = 0.027101, Final residual = 2.71904e-09, No Iterations 4
DILUPBiCG:  Solving for T, Initial residual = 0.000551374, Final residual = 3.60428e-09, No Iterations 3
DILUPBiCG:  Solving for T, Initial residual = 1.12957e-05, Final residual = 7.3632e-09, No Iterations 2
DILUPBiCG:  Solving for T, Initial residual = 5.26468e-07, Final residual = 9.58974e-09, No Iterations 1
 T goes from min(T) [0 0 0 0 0 0 0] 5.31729e-20 to max(T) [0 0 0 0 0 0 0] 0.953941

ExecutionTime = 3.8 s  ClockTime = 69 s

Time = 0.28
Courant Number mean: 0.743376 max: 1.45551
DILUPBiCG:  Solving for T, Initial residual = 0.0270986, Final residual = 3.46926e-09, No Iterations 4
DILUPBiCG:  Solving for T, Initial residual = 0.000561225, Final residual = 3.69728e-09, No Iterations 3
DILUPBiCG:  Solving for T, Initial residual = 1.19195e-05, Final residual = 7.22612e-09, No Iterations 2
DILUPBiCG:  Solving for T, Initial residual = 5.69974e-07, Final residual = 2.83544e-10, No Iterations 2
 T goes from min(T) [0 0 0 0 0 0 0] 5.01225e-20 to max(T) [0 0 0 0 0 0 0] 0.955593

ExecutionTime = 3.93 s  ClockTime = 72 s

Time = 0.3
Courant Number mean: 0.742615 max: 1.45325
DILUPBiCG:  Solving for T, Initial residual = 0.0271102, Final residual = 4.78909e-09, No Iterations 4
DILUPBiCG:  Solving for T, Initial residual = 0.000571783, Final residual = 3.74902e-09, No Iterations 3
DILUPBiCG:  Solving for T, Initial residual = 1.25958e-05, Final residual = 7.11711e-09, No Iterations 2
DILUPBiCG:  Solving for T, Initial residual = 6.18304e-07, Final residual = 2.9382e-10, No Iterations 2
 T goes from min(T) [0 0 0 0 0 0 0] 6.05881e-20 to max(T) [0 0 0 0 0 0 0] 0.954006

ExecutionTime = 4.06 s  ClockTime = 74 s

Time = 0.32
Courant Number mean: 0.741666 max: 1.45083
DILUPBiCG:  Solving for T, Initial residual = 0.027123, Final residual = 7.70945e-09, No Iterations 4
DILUPBiCG:  Solving for T, Initial residual = 0.000583168, Final residual = 3.77203e-09, No Iterations 3
DILUPBiCG:  Solving for T, Initial residual = 1.3286e-05, Final residual = 7.02883e-09, No Iterations 2
DILUPBiCG:  Solving for T, Initial residual = 6.70879e-07, Final residual = 3.07599e-10, No Iterations 2
 T goes from min(T) [0 0 0 0 0 0 0] 5.4329e-20 to max(T) [0 0 0 0 0 0 0] 0.95337

ExecutionTime = 4.19 s  ClockTime = 77 s

Time = 0.34
Courant Number mean: 0.740846 max: 1.44826
DILUPBiCG:  Solving for T, Initial residual = 0.0271149, Final residual = 7.66539e-11, No Iterations 5
DILUPBiCG:  Solving for T, Initial residual = 0.000595598, Final residual = 3.79764e-09, No Iterations 3
DILUPBiCG:  Solving for T, Initial residual = 1.409e-05, Final residual = 7.01489e-09, No Iterations 2
DILUPBiCG:  Solving for T, Initial residual = 7.23839e-07, Final residual = 3.23572e-10, No Iterations 2
 T goes from min(T) [0 0 0 0 0 0 0] 5.91611e-20 to max(T) [0 0 0 0 0 0 0] 0.954078

ExecutionTime = 4.32 s  ClockTime = 79 s

Time = 0.36
Courant Number mean: 0.739739 max: 1.44553
DILUPBiCG:  Solving for T, Initial residual = 0.0271623, Final residual = 8.65252e-11, No Iterations 5
DILUPBiCG:  Solving for T, Initial residual = 0.000609293, Final residual = 3.82413e-09, No Iterations 3
DILUPBiCG:  Solving for T, Initial residual = 1.493e-05, Final residual = 7.03614e-09, No Iterations 2
DILUPBiCG:  Solving for T, Initial residual = 7.88368e-07, Final residual = 3.49232e-10, No Iterations 2
 T goes from min(T) [0 0 0 0 0 0 0] -3.66313e-15 to max(T) [0 0 0 0 0 0 0] 0.954772

ExecutionTime = 4.45 s  ClockTime = 82 s

Time = 0.38
Courant Number mean: 0.738857 max: 1.44264
DILUPBiCG:  Solving for T, Initial residual = 0.0271754, Final residual = 1.01567e-10, No Iterations 5
DILUPBiCG:  Solving for T, Initial residual = 0.000623466, Final residual = 3.86164e-09, No Iterations 3
DILUPBiCG:  Solving for T, Initial residual = 1.58432e-05, Final residual = 7.12098e-09, No Iterations 2
DILUPBiCG:  Solving for T, Initial residual = 8.50859e-07, Final residual = 3.77418e-10, No Iterations 2
 T goes from min(T) [0 0 0 0 0 0 0] -4.14128e-13 to max(T) [0 0 0 0 0 0 0] 0.95495

ExecutionTime = 4.58 s  ClockTime = 84 s

Time = 0.4
Courant Number mean: 0.737589 max: 1.43961
DILUPBiCG:  Solving for T, Initial residual = 0.0272456, Final residual = 1.21899e-10, No Iterations 5
DILUPBiCG:  Solving for T, Initial residual = 0.000639821, Final residual = 3.93612e-09, No Iterations 3
DILUPBiCG:  Solving for T, Initial residual = 1.68178e-05, Final residual = 7.26096e-09, No Iterations 2
DILUPBiCG:  Solving for T, Initial residual = 9.32186e-07, Final residual = 4.20509e-10, No Iterations 2
 T goes from min(T) [0 0 0 0 0 0 0] -1.02579e-12 to max(T) [0 0 0 0 0 0 0] 0.954871

ExecutionTime = 4.72 s  ClockTime = 87 s

Time = 0.42
Courant Number mean: 0.736648 max: 1.4364
DILUPBiCG:  Solving for T, Initial residual = 0.027307, Final residual = 1.48648e-10, No Iterations 5
DILUPBiCG:  Solving for T, Initial residual = 0.000654842, Final residual = 4.05523e-09, No Iterations 3
DILUPBiCG:  Solving for T, Initial residual = 1.79589e-05, Final residual = 7.48272e-09, No Iterations 2
DILUPBiCG:  Solving for T, Initial residual = 1.0097e-06, Final residual = 4.70639e-10, No Iterations 2
 T goes from min(T) [0 0 0 0 0 0 0] -1.82877e-10 to max(T) [0 0 0 0 0 0 0] 0.953178

ExecutionTime = 4.85 s  ClockTime = 89 s

Time = 0.44
Courant Number mean: 0.735227 max: 1.43307
DILUPBiCG:  Solving for T, Initial residual = 0.0273851, Final residual = 1.80465e-10, No Iterations 5
DILUPBiCG:  Solving for T, Initial residual = 0.000672756, Final residual = 4.22244e-09, No Iterations 3
DILUPBiCG:  Solving for T, Initial residual = 1.92232e-05, Final residual = 7.80769e-09, No Iterations 2
DILUPBiCG:  Solving for T, Initial residual = 1.11525e-06, Final residual = 5.47323e-10, No Iterations 2
 T goes from min(T) [0 0 0 0 0 0 0] -1.03594e-09 to max(T) [0 0 0 0 0 0 0] 0.954676

ExecutionTime = 4.97 s  ClockTime = 91 s

Time = 0.46
Courant Number mean: 0.734229 max: 1.42956
DILUPBiCG:  Solving for T, Initial residual = 0.027525, Final residual = 2.14243e-10, No Iterations 5
DILUPBiCG:  Solving for T, Initial residual = 0.000691798, Final residual = 4.46803e-09, No Iterations 3
DILUPBiCG:  Solving for T, Initial residual = 2.05245e-05, Final residual = 8.21755e-09, No Iterations 2
DILUPBiCG:  Solving for T, Initial residual = 1.2191e-06, Final residual = 6.61469e-10, No Iterations 2
 T goes from min(T) [0 0 0 0 0 0 0] -3.60568e-09 to max(T) [0 0 0 0 0 0 0] 0.949859

ExecutionTime = 5.09 s  ClockTime = 94 s

Time = 0.48
Courant Number mean: 0.732657 max: 1.42591
DILUPBiCG:  Solving for T, Initial residual = 0.0276899, Final residual = 2.48525e-10, No Iterations 5
DILUPBiCG:  Solving for T, Initial residual = 0.000711243, Final residual = 4.78898e-09, No Iterations 3
DILUPBiCG:  Solving for T, Initial residual = 2.19835e-05, Final residual = 8.81649e-09, No Iterations 2
DILUPBiCG:  Solving for T, Initial residual = 1.35966e-06, Final residual = 8.66408e-10, No Iterations 2
 T goes from min(T) [0 0 0 0 0 0 0] -9.562e-09 to max(T) [0 0 0 0 0 0 0] 0.952866

ExecutionTime = 5.21 s  ClockTime = 96 s

Time = 0.5
Courant Number mean: 0.731603 max: 1.4221
DILUPBiCG:  Solving for T, Initial residual = 0.0278154, Final residual = 2.85194e-10, No Iterations 5
DILUPBiCG:  Solving for T, Initial residual = 0.000733071, Final residual = 5.2247e-09, No Iterations 3
DILUPBiCG:  Solving for T, Initial residual = 2.36628e-05, Final residual = 9.64552e-09, No Iterations 2
DILUPBiCG:  Solving for T, Initial residual = 1.49914e-06, Final residual = 1.25902e-09, No Iterations 2
 T goes from min(T) [0 0 0 0 0 0 0] -2.1504e-08 to max(T) [0 0 0 0 0 0 0] 0.949844

ExecutionTime = 5.34 s  ClockTime = 99 s

Time = 0.52
Courant Number mean: 0.729926 max: 1.41822
DILUPBiCG:  Solving for T, Initial residual = 0.0280281, Final residual = 3.31117e-10, No Iterations 5
DILUPBiCG:  Solving for T, Initial residual = 0.000754301, Final residual = 5.7354e-09, No Iterations 3
DILUPBiCG:  Solving for T, Initial residual = 2.54204e-05, Final residual = 3.8719e-10, No Iterations 3
DILUPBiCG:  Solving for T, Initial residual = 1.67218e-06, Final residual = 2.1559e-09, No Iterations 2
 T goes from min(T) [0 0 0 0 0 0 0] -5.04038e-08 to max(T) [0 0 0 0 0 0 0] 0.951016

ExecutionTime = 5.47 s  ClockTime = 101 s

Time = 0.54
Courant Number mean: 0.728772 max: 1.41417
DILUPBiCG:  Solving for T, Initial residual = 0.0282045, Final residual = 3.92782e-10, No Iterations 5
DILUPBiCG:  Solving for T, Initial residual = 0.000777129, Final residual = 6.46192e-09, No Iterations 3
DILUPBiCG:  Solving for T, Initial residual = 2.7353e-05, Final residual = 4.57643e-10, No Iterations 3
DILUPBiCG:  Solving for T, Initial residual = 1.85912e-06, Final residual = 6.28981e-09, No Iterations 2
 T goes from min(T) [0 0 0 0 0 0 0] -1.06561e-07 to max(T) [0 0 0 0 0 0 0] 0.951073

ExecutionTime = 5.63 s  ClockTime = 104 s

Time = 0.56
Courant Number mean: 0.727041 max: 1.40999
DILUPBiCG:  Solving for T, Initial residual = 0.0284175, Final residual = 4.76786e-10, No Iterations 5
DILUPBiCG:  Solving for T, Initial residual = 0.000801813, Final residual = 9.706e-09, No Iterations 3
DILUPBiCG:  Solving for T, Initial residual = 2.94652e-05, Final residual = 5.48495e-10, No Iterations 3
DILUPBiCG:  Solving for T, Initial residual = 2.08515e-06, Final residual = 5.28453e-11, No Iterations 3
 T goes from min(T) [0 0 0 0 0 0 0] -1.162e-06 to max(T) [0 0 0 0 0 0 0] 0.945585

ExecutionTime = 5.77 s  ClockTime = 107 s

Time = 0.58
Courant Number mean: 0.725742 max: 1.40564
DILUPBiCG:  Solving for T, Initial residual = 0.0286532, Final residual = 5.78006e-10, No Iterations 5
DILUPBiCG:  Solving for T, Initial residual = 0.000828656, Final residual = 3.66715e-10, No Iterations 4
DILUPBiCG:  Solving for T, Initial residual = 3.17217e-05, Final residual = 6.56222e-10, No Iterations 3
DILUPBiCG:  Solving for T, Initial residual = 2.3158e-06, Final residual = 3.65395e-09, No Iterations 2
 T goes from min(T) [0 0 0 0 0 0 0] -6.45658e-06 to max(T) [0 0 0 0 0 0 0] 0.95037

ExecutionTime = 5.9 s  ClockTime = 109 s

Time = 0.6
Courant Number mean: 0.723961 max: 1.40116
DILUPBiCG:  Solving for T, Initial residual = 0.0288634, Final residual = 6.61136e-10, No Iterations 5
DILUPBiCG:  Solving for T, Initial residual = 0.000856355, Final residual = 4.4327e-10, No Iterations 4
DILUPBiCG:  Solving for T, Initial residual = 3.41739e-05, Final residual = 7.95748e-10, No Iterations 3
DILUPBiCG:  Solving for T, Initial residual = 2.6012e-06, Final residual = 2.85613e-09, No Iterations 2
 T goes from min(T) [0 0 0 0 0 0 0] -1.55845e-05 to max(T) [0 0 0 0 0 0 0] 0.949532

ExecutionTime = 6.03 s  ClockTime = 112 s

Time = 0.62
Courant Number mean: 0.722518 max: 1.39652
DILUPBiCG:  Solving for T, Initial residual = 0.0291193, Final residual = 7.03105e-10, No Iterations 5
DILUPBiCG:  Solving for T, Initial residual = 0.000884834, Final residual = 5.60027e-10, No Iterations 4
DILUPBiCG:  Solving for T, Initial residual = 3.69569e-05, Final residual = 9.52074e-10, No Iterations 3
DILUPBiCG:  Solving for T, Initial residual = 2.90012e-06, Final residual = 2.80361e-09, No Iterations 2
 T goes from min(T) [0 0 0 0 0 0 0] -2.53502e-05 to max(T) [0 0 0 0 0 0 0] 0.943756

ExecutionTime = 6.16 s  ClockTime = 114 s

Time = 0.64
Courant Number mean: 0.72069 max: 1.39174
DILUPBiCG:  Solving for T, Initial residual = 0.0293815, Final residual = 8.24067e-10, No Iterations 5
DILUPBiCG:  Solving for T, Initial residual = 0.00091728, Final residual = 7.91907e-10, No Iterations 4
DILUPBiCG:  Solving for T, Initial residual = 3.99469e-05, Final residual = 1.16262e-09, No Iterations 3
DILUPBiCG:  Solving for T, Initial residual = 3.24709e-06, Final residual = 3.11298e-09, No Iterations 2
 T goes from min(T) [0 0 0 0 0 0 0] -3.82661e-05 to max(T) [0 0 0 0 0 0 0] 0.946008

ExecutionTime = 6.29 s  ClockTime = 117 s

Time = 0.66
Courant Number mean: 0.719101 max: 1.3868
DILUPBiCG:  Solving for T, Initial residual = 0.0296223, Final residual = 8.96115e-10, No Iterations 5
DILUPBiCG:  Solving for T, Initial residual = 0.000951343, Final residual = 1.23016e-09, No Iterations 4
DILUPBiCG:  Solving for T, Initial residual = 4.31092e-05, Final residual = 1.49759e-09, No Iterations 3
DILUPBiCG:  Solving for T, Initial residual = 3.61783e-06, Final residual = 3.61161e-09, No Iterations 2
 T goes from min(T) [0 0 0 0 0 0 0] -5.63042e-05 to max(T) [0 0 0 0 0 0 0] 0.946206

ExecutionTime = 6.43 s  ClockTime = 120 s

Time = 0.68
Courant Number mean: 0.71724 max: 1.38173
DILUPBiCG:  Solving for T, Initial residual = 0.0298999, Final residual = 1.00221e-09, No Iterations 5
DILUPBiCG:  Solving for T, Initial residual = 0.000986523, Final residual = 1.14968e-09, No Iterations 4
DILUPBiCG:  Solving for T, Initial residual = 4.64329e-05, Final residual = 1.91976e-09, No Iterations 3
DILUPBiCG:  Solving for T, Initial residual = 4.03144e-06, Final residual = 5.01188e-09, No Iterations 2
 T goes from min(T) [0 0 0 0 0 0 0] -7.37411e-05 to max(T) [0 0 0 0 0 0 0] 0.940894

ExecutionTime = 6.56 s  ClockTime = 122 s

Time = 0.7
Courant Number mean: 0.715506 max: 1.3765
DILUPBiCG:  Solving for T, Initial residual = 0.0302165, Final residual = 1.1319e-09, No Iterations 5
DILUPBiCG:  Solving for T, Initial residual = 0.00102263, Final residual = 1.1092e-09, No Iterations 4
DILUPBiCG:  Solving for T, Initial residual = 5.00144e-05, Final residual = 2.69607e-09, No Iterations 3
DILUPBiCG:  Solving for T, Initial residual = 4.47412e-06, Final residual = 9.29889e-09, No Iterations 2
 T goes from min(T) [0 0 0 0 0 0 0] -9.73708e-05 to max(T) [0 0 0 0 0 0 0] 0.934891

ExecutionTime = 6.71 s  ClockTime = 126 s

Time = 0.72
Courant Number mean: 0.713615 max: 1.37114
DILUPBiCG:  Solving for T, Initial residual = 0.0305238, Final residual = 1.2487e-09, No Iterations 5
DILUPBiCG:  Solving for T, Initial residual = 0.00106022, Final residual = 1.35048e-09, No Iterations 4
DILUPBiCG:  Solving for T, Initial residual = 5.38259e-05, Final residual = 3.12255e-09, No Iterations 3
DILUPBiCG:  Solving for T, Initial residual = 4.95475e-06, Final residual = 3.80724e-10, No Iterations 3
 T goes from min(T) [0 0 0 0 0 0 0] -0.000115117 to max(T) [0 0 0 0 0 0 0] 0.941027

ExecutionTime = 6.84 s  ClockTime = 128 s

Time = 0.74
Courant Number mean: 0.711748 max: 1.36563
DILUPBiCG:  Solving for T, Initial residual = 0.0307856, Final residual = 1.387e-09, No Iterations 5
DILUPBiCG:  Solving for T, Initial residual = 0.00109985, Final residual = 1.62523e-09, No Iterations 4
DILUPBiCG:  Solving for T, Initial residual = 5.80591e-05, Final residual = 3.61153e-09, No Iterations 3
DILUPBiCG:  Solving for T, Initial residual = 5.49682e-06, Final residual = 4.58842e-10, No Iterations 3
 T goes from min(T) [0 0 0 0 0 0 0] -0.000145193 to max(T) [0 0 0 0 0 0 0] 0.940496

ExecutionTime = 6.97 s  ClockTime = 131 s

Time = 0.76
Courant Number mean: 0.709819 max: 1.35997
DILUPBiCG:  Solving for T, Initial residual = 0.0311248, Final residual = 1.69249e-09, No Iterations 5
DILUPBiCG:  Solving for T, Initial residual = 0.00114187, Final residual = 2.15237e-09, No Iterations 4
DILUPBiCG:  Solving for T, Initial residual = 6.25831e-05, Final residual = 4.34269e-09, No Iterations 3
DILUPBiCG:  Solving for T, Initial residual = 6.07045e-06, Final residual = 5.63271e-10, No Iterations 3
 T goes from min(T) [0 0 0 0 0 0 0] -0.000175412 to max(T) [0 0 0 0 0 0 0] 0.934736

ExecutionTime = 7.1 s  ClockTime = 134 s

Time = 0.78
Courant Number mean: 0.707832 max: 1.35418
DILUPBiCG:  Solving for T, Initial residual = 0.0315204, Final residual = 2.14426e-09, No Iterations 5
DILUPBiCG:  Solving for T, Initial residual = 0.00118505, Final residual = 3.18353e-09, No Iterations 4
DILUPBiCG:  Solving for T, Initial residual = 6.70197e-05, Final residual = 5.36635e-09, No Iterations 3
DILUPBiCG:  Solving for T, Initial residual = 6.67789e-06, Final residual = 6.44444e-10, No Iterations 3
 T goes from min(T) [0 0 0 0 0 0 0] -0.000201427 to max(T) [0 0 0 0 0 0 0] 0.925149

ExecutionTime = 7.25 s  ClockTime = 138 s

Time = 0.8
Courant Number mean: 0.705882 max: 1.34824
DILUPBiCG:  Solving for T, Initial residual = 0.0318949, Final residual = 2.489e-09, No Iterations 5
DILUPBiCG:  Solving for T, Initial residual = 0.00122844, Final residual = 1.22593e-10, No Iterations 5
DILUPBiCG:  Solving for T, Initial residual = 7.18617e-05, Final residual = 6.03358e-09, No Iterations 3
DILUPBiCG:  Solving for T, Initial residual = 7.29807e-06, Final residual = 7.21745e-10, No Iterations 3
 T goes from min(T) [0 0 0 0 0 0 0] -0.000235149 to max(T) [0 0 0 0 0 0 0] 0.927179

ExecutionTime = 7.38 s  ClockTime = 142 s

Time = 0.82
Courant Number mean: 0.703764 max: 1.34217
DILUPBiCG:  Solving for T, Initial residual = 0.0322491, Final residual = 2.6877e-09, No Iterations 5
DILUPBiCG:  Solving for T, Initial residual = 0.00127448, Final residual = 5.20379e-09, No Iterations 4
DILUPBiCG:  Solving for T, Initial residual = 7.68693e-05, Final residual = 6.06948e-09, No Iterations 3
DILUPBiCG:  Solving for T, Initial residual = 7.97439e-06, Final residual = 2.04592e-09, No Iterations 3
 T goes from min(T) [0 0 0 0 0 0 0] -0.000263379 to max(T) [0 0 0 0 0 0 0] 0.932739

ExecutionTime = 7.54 s  ClockTime = 147 s

Time = 0.84
Courant Number mean: 0.701779 max: 1.33596
DILUPBiCG:  Solving for T, Initial residual = 0.032624, Final residual = 2.69974e-09, No Iterations 5
DILUPBiCG:  Solving for T, Initial residual = 0.00132158, Final residual = 3.98974e-09, No Iterations 4
DILUPBiCG:  Solving for T, Initial residual = 8.23467e-05, Final residual = 7.30456e-09, No Iterations 3
DILUPBiCG:  Solving for T, Initial residual = 8.72301e-06, Final residual = 2.70102e-09, No Iterations 3
 T goes from min(T) [0 0 0 0 0 0 0] -0.000298741 to max(T) [0 0 0 0 0 0 0] 0.930942

ExecutionTime = 7.68 s  ClockTime = 150 s

Time = 0.86
Courant Number mean: 0.699543 max: 1.32961
DILUPBiCG:  Solving for T, Initial residual = 0.0330161, Final residual = 2.4568e-09, No Iterations 5
DILUPBiCG:  Solving for T, Initial residual = 0.00136717, Final residual = 3.78942e-09, No Iterations 4
DILUPBiCG:  Solving for T, Initial residual = 8.77243e-05, Final residual = 3.62729e-10, No Iterations 4
DILUPBiCG:  Solving for T, Initial residual = 9.46496e-06, Final residual = 2.08388e-09, No Iterations 3
 T goes from min(T) [0 0 0 0 0 0 0] -0.000327254 to max(T) [0 0 0 0 0 0 0] 0.923278

ExecutionTime = 7.84 s  ClockTime = 153 s

Time = 0.88
Courant Number mean: 0.69752 max: 1.32312
DILUPBiCG:  Solving for T, Initial residual = 0.0334312, Final residual = 2.27691e-09, No Iterations 5
DILUPBiCG:  Solving for T, Initial residual = 0.00141619, Final residual = 4.30684e-09, No Iterations 4
DILUPBiCG:  Solving for T, Initial residual = 9.34543e-05, Final residual = 4.54596e-10, No Iterations 4
DILUPBiCG:  Solving for T, Initial residual = 1.02787e-05, Final residual = 2.12487e-09, No Iterations 3
 T goes from min(T) [0 0 0 0 0 0 0] -0.000366121 to max(T) [0 0 0 0 0 0 0] 0.912597

ExecutionTime = 7.97 s  ClockTime = 156 s

Time = 0.9
Courant Number mean: 0.69518 max: 1.3165
DILUPBiCG:  Solving for T, Initial residual = 0.0338658, Final residual = 2.07646e-09, No Iterations 5
DILUPBiCG:  Solving for T, Initial residual = 0.00146488, Final residual = 5.35969e-09, No Iterations 4
DILUPBiCG:  Solving for T, Initial residual = 9.90921e-05, Final residual = 5.03383e-10, No Iterations 4
DILUPBiCG:  Solving for T, Initial residual = 1.10481e-05, Final residual = 1.7872e-09, No Iterations 3
 T goes from min(T) [0 0 0 0 0 0 0] -0.000404256 to max(T) [0 0 0 0 0 0 0] 0.908977

ExecutionTime = 8.11 s  ClockTime = 159 s

Time = 0.92
Courant Number mean: 0.693131 max: 1.30974
DILUPBiCG:  Solving for T, Initial residual = 0.0343074, Final residual = 3.41555e-09, No Iterations 5
DILUPBiCG:  Solving for T, Initial residual = 0.00151513, Final residual = 6.37918e-09, No Iterations 4
DILUPBiCG:  Solving for T, Initial residual = 0.000105215, Final residual = 4.24727e-10, No Iterations 4
DILUPBiCG:  Solving for T, Initial residual = 1.18624e-05, Final residual = 1.36575e-09, No Iterations 3
 T goes from min(T) [0 0 0 0 0 0 0] -0.000444556 to max(T) [0 0 0 0 0 0 0] 0.906595

ExecutionTime = 8.25 s  ClockTime = 162 s

Time = 0.94
Courant Number mean: 0.690674 max: 1.30286
DILUPBiCG:  Solving for T, Initial residual = 0.0347514, Final residual = 3.3261e-09, No Iterations 5
DILUPBiCG:  Solving for T, Initial residual = 0.00156507, Final residual = 7.68999e-09, No Iterations 4
DILUPBiCG:  Solving for T, Initial residual = 0.000111597, Final residual = 3.28291e-10, No Iterations 4
DILUPBiCG:  Solving for T, Initial residual = 1.28356e-05, Final residual = 1.26091e-09, No Iterations 3
 T goes from min(T) [0 0 0 0 0 0 0] -0.000481539 to max(T) [0 0 0 0 0 0 0] 0.915136

ExecutionTime = 8.39 s  ClockTime = 165 s

Time = 0.96
Courant Number mean: 0.688616 max: 1.29583
DILUPBiCG:  Solving for T, Initial residual = 0.0351615, Final residual = 2.84018e-09, No Iterations 5
DILUPBiCG:  Solving for T, Initial residual = 0.00161454, Final residual = 6.04171e-10, No Iterations 5
DILUPBiCG:  Solving for T, Initial residual = 0.000117943, Final residual = 5.17564e-10, No Iterations 4
DILUPBiCG:  Solving for T, Initial residual = 1.36929e-05, Final residual = 1.22666e-09, No Iterations 3
 T goes from min(T) [0 0 0 0 0 0 0] -0.000498804 to max(T) [0 0 0 0 0 0 0] 0.918873

ExecutionTime = 8.53 s  ClockTime = 168 s

Time = 0.98
Courant Number mean: 0.686056 max: 1.28869
DILUPBiCG:  Solving for T, Initial residual = 0.0355866, Final residual = 3.30121e-09, No Iterations 5
DILUPBiCG:  Solving for T, Initial residual = 0.00166558, Final residual = 6.32367e-09, No Iterations 4
DILUPBiCG:  Solving for T, Initial residual = 0.000124313, Final residual = 7.0146e-09, No Iterations 3
DILUPBiCG:  Solving for T, Initial residual = 1.44981e-05, Final residual = 1.14474e-09, No Iterations 3
 T goes from min(T) [0 0 0 0 0 0 0] -0.000598873 to max(T) [0 0 0 0 0 0 0] 0.918858

ExecutionTime = 8.69 s  ClockTime = 171 s

Time = 1
Courant Number mean: 0.683983 max: 1.2814
DILUPBiCG:  Solving for T, Initial residual = 0.0360479, Final residual = 5.31617e-09, No Iterations 5
DILUPBiCG:  Solving for T, Initial residual = 0.00172126, Final residual = 3.10652e-09, No Iterations 4
DILUPBiCG:  Solving for T, Initial residual = 0.000130853, Final residual = 8.12711e-09, No Iterations 3
DILUPBiCG:  Solving for T, Initial residual = 1.55531e-05, Final residual = 1.03224e-09, No Iterations 3
 T goes from min(T) [0 0 0 0 0 0 0] -0.00077189 to max(T) [0 0 0 0 0 0 0] 0.918032

ExecutionTime = 8.83 s  ClockTime = 174 s

Time = 1.02
Courant Number mean: 0.681405 max: 1.27405
DILUPBiCG:  Solving for T, Initial residual = 0.0365097, Final residual = 6.51751e-09, No Iterations 5
DILUPBiCG:  Solving for T, Initial residual = 0.00177302, Final residual = 3.8734e-09, No Iterations 4
DILUPBiCG:  Solving for T, Initial residual = 0.000137218, Final residual = 7.38618e-09, No Iterations 3
DILUPBiCG:  Solving for T, Initial residual = 1.64746e-05, Final residual = 7.99872e-10, No Iterations 3
 T goes from min(T) [0 0 0 0 0 0 0] -0.000922386 to max(T) [0 0 0 0 0 0 0] 0.917109

ExecutionTime = 8.98 s  ClockTime = 177 s

Time = 1.04
Courant Number mean: 0.679281 max: 1.26656
DILUPBiCG:  Solving for T, Initial residual = 0.0369594, Final residual = 4.64997e-09, No Iterations 5
DILUPBiCG:  Solving for T, Initial residual = 0.00182092, Final residual = 4.3661e-09, No Iterations 4
DILUPBiCG:  Solving for T, Initial residual = 0.00014408, Final residual = 6.07719e-09, No Iterations 3
DILUPBiCG:  Solving for T, Initial residual = 1.73044e-05, Final residual = 6.62824e-10, No Iterations 3
 T goes from min(T) [0 0 0 0 0 0 0] -0.00118485 to max(T) [0 0 0 0 0 0 0] 0.916556

ExecutionTime = 9.13 s  ClockTime = 180 s

Time = 1.06
Courant Number mean: 0.676688 max: 1.25896
DILUPBiCG:  Solving for T, Initial residual = 0.0374481, Final residual = 2.90217e-09, No Iterations 5
DILUPBiCG:  Solving for T, Initial residual = 0.00187584, Final residual = 4.60499e-09, No Iterations 4
DILUPBiCG:  Solving for T, Initial residual = 0.00015123, Final residual = 5.19463e-09, No Iterations 3
DILUPBiCG:  Solving for T, Initial residual = 1.84173e-05, Final residual = 6.4718e-10, No Iterations 3
 T goes from min(T) [0 0 0 0 0 0 0] -0.00145752 to max(T) [0 0 0 0 0 0 0] 0.915529

ExecutionTime = 9.26 s  ClockTime = 183 s

Time = 1.08
Courant Number mean: 0.67447 max: 1.25122
DILUPBiCG:  Solving for T, Initial residual = 0.0379098, Final residual = 2.04153e-09, No Iterations 5
DILUPBiCG:  Solving for T, Initial residual = 0.00192806, Final residual = 2.83594e-09, No Iterations 4
DILUPBiCG:  Solving for T, Initial residual = 0.000158038, Final residual = 4.70264e-09, No Iterations 3
DILUPBiCG:  Solving for T, Initial residual = 1.93206e-05, Final residual = 6.34828e-10, No Iterations 3
 T goes from min(T) [0 0 0 0 0 0 0] -0.00180634 to max(T) [0 0 0 0 0 0 0] 0.914449

ExecutionTime = 9.4 s  ClockTime = 186 s

Time = 1.1
Courant Number mean: 0.67188 max: 1.24337
DILUPBiCG:  Solving for T, Initial residual = 0.0383352, Final residual = 1.74519e-09, No Iterations 5
DILUPBiCG:  Solving for T, Initial residual = 0.00198024, Final residual = 1.83816e-09, No Iterations 4
DILUPBiCG:  Solving for T, Initial residual = 0.000164051, Final residual = 4.40666e-09, No Iterations 3
DILUPBiCG:  Solving for T, Initial residual = 2.01795e-05, Final residual = 6.25839e-10, No Iterations 3
 T goes from min(T) [0 0 0 0 0 0 0] -0.00221317 to max(T) [0 0 0 0 0 0 0] 0.913646

ExecutionTime = 9.53 s  ClockTime = 189 s

Time = 1.12
Courant Number mean: 0.669583 max: 1.23539
DILUPBiCG:  Solving for T, Initial residual = 0.0387732, Final residual = 2.17562e-09, No Iterations 5
DILUPBiCG:  Solving for T, Initial residual = 0.00203409, Final residual = 1.59904e-09, No Iterations 4
DILUPBiCG:  Solving for T, Initial residual = 0.000171522, Final residual = 4.24672e-09, No Iterations 3
DILUPBiCG:  Solving for T, Initial residual = 2.12572e-05, Final residual = 6.48042e-10, No Iterations 3
 T goes from min(T) [0 0 0 0 0 0 0] -0.00253407 to max(T) [0 0 0 0 0 0 0] 0.913267

ExecutionTime = 9.67 s  ClockTime = 192 s

Time = 1.14
Courant Number mean: 0.667006 max: 1.22729
DILUPBiCG:  Solving for T, Initial residual = 0.0392571, Final residual = 1.97268e-09, No Iterations 5
DILUPBiCG:  Solving for T, Initial residual = 0.00208058, Final residual = 1.45216e-09, No Iterations 4
DILUPBiCG:  Solving for T, Initial residual = 0.00017884, Final residual = 4.10682e-09, No Iterations 3
DILUPBiCG:  Solving for T, Initial residual = 2.2147e-05, Final residual = 6.68476e-10, No Iterations 3
 T goes from min(T) [0 0 0 0 0 0 0] -0.00315355 to max(T) [0 0 0 0 0 0 0] 0.913245

ExecutionTime = 9.81 s  ClockTime = 195 s

Time = 1.16
Courant Number mean: 0.664647 max: 1.21906
DILUPBiCG:  Solving for T, Initial residual = 0.0396594, Final residual = 6.68149e-10, No Iterations 5
DILUPBiCG:  Solving for T, Initial residual = 0.00213617, Final residual = 1.34689e-09, No Iterations 4
DILUPBiCG:  Solving for T, Initial residual = 0.000184691, Final residual = 4.16676e-09, No Iterations 3
DILUPBiCG:  Solving for T, Initial residual = 2.30693e-05, Final residual = 7.02348e-10, No Iterations 3
 T goes from min(T) [0 0 0 0 0 0 0] -0.00370742 to max(T) [0 0 0 0 0 0 0] 0.913492

ExecutionTime = 9.97 s  ClockTime = 198 s

Time = 1.18
Courant Number mean: 0.662098 max: 1.21072
DILUPBiCG:  Solving for T, Initial residual = 0.0400813, Final residual = 4.54082e-10, No Iterations 5
DILUPBiCG:  Solving for T, Initial residual = 0.00219237, Final residual = 1.25491e-09, No Iterations 4
DILUPBiCG:  Solving for T, Initial residual = 0.000191133, Final residual = 4.13508e-09, No Iterations 3
DILUPBiCG:  Solving for T, Initial residual = 2.40526e-05, Final residual = 7.45703e-10, No Iterations 3
 T goes from min(T) [0 0 0 0 0 0 0] -0.00624703 to max(T) [0 0 0 0 0 0 0] 0.913856

ExecutionTime = 10.12 s  ClockTime = 201 s

Time = 1.2
Courant Number mean: 0.659677 max: 1.20226
DILUPBiCG:  Solving for T, Initial residual = 0.040603, Final residual = 4.71841e-10, No Iterations 5
DILUPBiCG:  Solving for T, Initial residual = 0.00223963, Final residual = 1.16579e-09, No Iterations 4
DILUPBiCG:  Solving for T, Initial residual = 0.000199407, Final residual = 4.15246e-09, No Iterations 3
DILUPBiCG:  Solving for T, Initial residual = 2.4886e-05, Final residual = 7.89114e-10, No Iterations 3
 T goes from min(T) [0 0 0 0 0 0 0] -0.00926925 to max(T) [0 0 0 0 0 0 0] 0.914048

ExecutionTime = 10.27 s  ClockTime = 204 s

Time = 1.22
Courant Number mean: 0.657147 max: 1.19369
DILUPBiCG:  Solving for T, Initial residual = 0.0409957, Final residual = 4.62285e-10, No Iterations 5
DILUPBiCG:  Solving for T, Initial residual = 0.00229308, Final residual = 1.0848e-09, No Iterations 4
DILUPBiCG:  Solving for T, Initial residual = 0.000204676, Final residual = 4.23382e-09, No Iterations 3
DILUPBiCG:  Solving for T, Initial residual = 2.58162e-05, Final residual = 8.86828e-10, No Iterations 3
 T goes from min(T) [0 0 0 0 0 0 0] -0.0116716 to max(T) [0 0 0 0 0 0 0] 0.91366

ExecutionTime = 10.4 s  ClockTime = 207 s

Time = 1.24
Courant Number mean: 0.654669 max: 1.185
DILUPBiCG:  Solving for T, Initial residual = 0.0414357, Final residual = 4.42945e-10, No Iterations 5
DILUPBiCG:  Solving for T, Initial residual = 0.0023481, Final residual = 1.01551e-09, No Iterations 4
DILUPBiCG:  Solving for T, Initial residual = 0.000210585, Final residual = 4.15324e-09, No Iterations 3
DILUPBiCG:  Solving for T, Initial residual = 2.66283e-05, Final residual = 9.8112e-10, No Iterations 3
 T goes from min(T) [0 0 0 0 0 0 0] -0.0123894 to max(T) [0 0 0 0 0 0 0] 0.912152

ExecutionTime = 10.53 s  ClockTime = 210 s

Time = 1.26
Courant Number mean: 0.65218 max: 1.17619
DILUPBiCG:  Solving for T, Initial residual = 0.0419872, Final residual = 4.19198e-10, No Iterations 5
DILUPBiCG:  Solving for T, Initial residual = 0.00239347, Final residual = 9.83611e-10, No Iterations 4
DILUPBiCG:  Solving for T, Initial residual = 0.000219002, Final residual = 4.26915e-09, No Iterations 3
DILUPBiCG:  Solving for T, Initial residual = 2.74352e-05, Final residual = 1.09766e-09, No Iterations 3
 T goes from min(T) [0 0 0 0 0 0 0] -0.0167221 to max(T) [0 0 0 0 0 0 0] 0.908851

ExecutionTime = 10.66 s  ClockTime = 212 s

Time = 1.28
Courant Number mean: 0.649677 max: 1.16728
DILUPBiCG:  Solving for T, Initial residual = 0.0423112, Final residual = 3.90398e-10, No Iterations 5
DILUPBiCG:  Solving for T, Initial residual = 0.00244264, Final residual = 9.37276e-10, No Iterations 4
DILUPBiCG:  Solving for T, Initial residual = 0.00022292, Final residual = 4.24179e-09, No Iterations 3
DILUPBiCG:  Solving for T, Initial residual = 2.83462e-05, Final residual = 1.14614e-09, No Iterations 3
 T goes from min(T) [0 0 0 0 0 0 0] -0.020595 to max(T) [0 0 0 0 0 0 0] 0.906964

ExecutionTime = 10.8 s  ClockTime = 215 s

Time = 1.3
Courant Number mean: 0.647226 max: 1.15825
DILUPBiCG:  Solving for T, Initial residual = 0.0427624, Final residual = 3.63054e-10, No Iterations 5
DILUPBiCG:  Solving for T, Initial residual = 0.00249235, Final residual = 8.84203e-10, No Iterations 4
DILUPBiCG:  Solving for T, Initial residual = 0.000230059, Final residual = 4.24942e-09, No Iterations 3
DILUPBiCG:  Solving for T, Initial residual = 2.90357e-05, Final residual = 1.12594e-09, No Iterations 3
 T goes from min(T) [0 0 0 0 0 0 0] -0.0208361 to max(T) [0 0 0 0 0 0 0] 0.908749

ExecutionTime = 10.93 s  ClockTime = 218 s

Time = 1.32
Courant Number mean: 0.644689 max: 1.14912
DILUPBiCG:  Solving for T, Initial residual = 0.0432398, Final residual = 3.30098e-10, No Iterations 5
DILUPBiCG:  Solving for T, Initial residual = 0.00254028, Final residual = 8.53969e-10, No Iterations 4
DILUPBiCG:  Solving for T, Initial residual = 0.000236082, Final residual = 4.2839e-09, No Iterations 3
DILUPBiCG:  Solving for T, Initial residual = 2.97493e-05, Final residual = 1.12508e-09, No Iterations 3
 T goes from min(T) [0 0 0 0 0 0 0] -0.0245291 to max(T) [0 0 0 0 0 0 0] 0.908474

ExecutionTime = 11.06 s  ClockTime = 221 s

Time = 1.34
Courant Number mean: 0.642299 max: 1.13987
DILUPBiCG:  Solving for T, Initial residual = 0.0435681, Final residual = 2.97088e-10, No Iterations 5
DILUPBiCG:  Solving for T, Initial residual = 0.00258136, Final residual = 7.98955e-10, No Iterations 4
DILUPBiCG:  Solving for T, Initial residual = 0.000239665, Final residual = 4.1706e-09, No Iterations 3
DILUPBiCG:  Solving for T, Initial residual = 3.04994e-05, Final residual = 1.12341e-09, No Iterations 3
 T goes from min(T) [0 0 0 0 0 0 0] -0.0295106 to max(T) [0 0 0 0 0 0 0] 0.90511

ExecutionTime = 11.2 s  ClockTime = 224 s

Time = 1.36
Courant Number mean: 0.639756 max: 1.13053
DILUPBiCG:  Solving for T, Initial residual = 0.0439728, Final residual = 2.76e-10, No Iterations 5
DILUPBiCG:  Solving for T, Initial residual = 0.00263094, Final residual = 7.6868e-10, No Iterations 4
DILUPBiCG:  Solving for T, Initial residual = 0.000247545, Final residual = 4.23042e-09, No Iterations 3
DILUPBiCG:  Solving for T, Initial residual = 3.12007e-05, Final residual = 1.13895e-09, No Iterations 3
 T goes from min(T) [0 0 0 0 0 0 0] -0.0296314 to max(T) [0 0 0 0 0 0 0] 0.900806

ExecutionTime = 11.33 s  ClockTime = 227 s

Time = 1.38
Courant Number mean: 0.637425 max: 1.12107
DILUPBiCG:  Solving for T, Initial residual = 0.044428, Final residual = 2.52143e-10, No Iterations 5
DILUPBiCG:  Solving for T, Initial residual = 0.00267399, Final residual = 7.29046e-10, No Iterations 4
DILUPBiCG:  Solving for T, Initial residual = 0.00025115, Final residual = 4.11265e-09, No Iterations 3
DILUPBiCG:  Solving for T, Initial residual = 3.1804e-05, Final residual = 1.1309e-09, No Iterations 3
 T goes from min(T) [0 0 0 0 0 0 0] -0.0330848 to max(T) [0 0 0 0 0 0 0] 0.903017

ExecutionTime = 11.46 s  ClockTime = 229 s

Time = 1.4
Courant Number mean: 0.634887 max: 1.11152
DILUPBiCG:  Solving for T, Initial residual = 0.0448232, Final residual = 2.31136e-10, No Iterations 5
DILUPBiCG:  Solving for T, Initial residual = 0.00270956, Final residual = 6.87886e-10, No Iterations 4
DILUPBiCG:  Solving for T, Initial residual = 0.000257358, Final residual = 4.07392e-09, No Iterations 3
DILUPBiCG:  Solving for T, Initial residual = 3.23697e-05, Final residual = 1.12716e-09, No Iterations 3
 T goes from min(T) [0 0 0 0 0 0 0] -0.0385993 to max(T) [0 0 0 0 0 0 0] 0.902378

ExecutionTime = 11.6 s  ClockTime = 232 s

Time = 1.42
Courant Number mean: 0.632631 max: 1.10185
DILUPBiCG:  Solving for T, Initial residual = 0.0451599, Final residual = 2.14514e-10, No Iterations 5
DILUPBiCG:  Solving for T, Initial residual = 0.00276303, Final residual = 6.66297e-10, No Iterations 4
DILUPBiCG:  Solving for T, Initial residual = 0.000262217, Final residual = 3.99484e-09, No Iterations 3
DILUPBiCG:  Solving for T, Initial residual = 3.30061e-05, Final residual = 1.11236e-09, No Iterations 3
 T goes from min(T) [0 0 0 0 0 0 0] -0.0361432 to max(T) [0 0 0 0 0 0 0] 0.896495

ExecutionTime = 11.73 s  ClockTime = 235 s

Time = 1.44
Courant Number mean: 0.630086 max: 1.0921
DILUPBiCG:  Solving for T, Initial residual = 0.0455769, Final residual = 1.96673e-10, No Iterations 5
DILUPBiCG:  Solving for T, Initial residual = 0.00279009, Final residual = 6.21541e-10, No Iterations 4
DILUPBiCG:  Solving for T, Initial residual = 0.000265283, Final residual = 3.83416e-09, No Iterations 3
DILUPBiCG:  Solving for T, Initial residual = 3.35079e-05, Final residual = 1.09061e-09, No Iterations 3
 T goes from min(T) [0 0 0 0 0 0 0] -0.0424746 to max(T) [0 0 0 0 0 0 0] 0.895576

ExecutionTime = 11.87 s  ClockTime = 238 s

Time = 1.46
Courant Number mean: 0.62783 max: 1.08224
DILUPBiCG:  Solving for T, Initial residual = 0.0459346, Final residual = 9.65588e-09, No Iterations 4
DILUPBiCG:  Solving for T, Initial residual = 0.00283104, Final residual = 6.00504e-10, No Iterations 4
DILUPBiCG:  Solving for T, Initial residual = 0.000271337, Final residual = 3.78438e-09, No Iterations 3
DILUPBiCG:  Solving for T, Initial residual = 3.39806e-05, Final residual = 1.0566e-09, No Iterations 3
 T goes from min(T) [0 0 0 0 0 0 0] -0.0468245 to max(T) [0 0 0 0 0 0 0] 0.897288

ExecutionTime = 12 s  ClockTime = 240 s

Time = 1.48
Courant Number mean: 0.625209 max: 1.0723
DILUPBiCG:  Solving for T, Initial residual = 0.0462603, Final residual = 9.20625e-09, No Iterations 4
DILUPBiCG:  Solving for T, Initial residual = 0.00287589, Final residual = 5.5915e-10, No Iterations 4
DILUPBiCG:  Solving for T, Initial residual = 0.000273543, Final residual = 3.58315e-09, No Iterations 3
DILUPBiCG:  Solving for T, Initial residual = 3.44376e-05, Final residual = 1.01883e-09, No Iterations 3
 T goes from min(T) [0 0 0 0 0 0 0] -0.0462615 to max(T) [0 0 0 0 0 0 0] 0.892427

ExecutionTime = 12.14 s  ClockTime = 243 s

Time = 1.5
Courant Number mean: 0.622932 max: 1.06225
DILUPBiCG:  Solving for T, Initial residual = 0.0467075, Final residual = 8.65331e-09, No Iterations 4
DILUPBiCG:  Solving for T, Initial residual = 0.00289746, Final residual = 5.3539e-10, No Iterations 4
DILUPBiCG:  Solving for T, Initial residual = 0.000279192, Final residual = 3.49752e-09, No Iterations 3
DILUPBiCG:  Solving for T, Initial residual = 3.47948e-05, Final residual = 9.65577e-10, No Iterations 3
 T goes from min(T) [0 0 0 0 0 0 0] -0.0525827 to max(T) [0 0 0 0 0 0 0] 0.888291

ExecutionTime = 12.27 s  ClockTime = 246 s

Time = 1.52
Courant Number mean: 0.620271 max: 1.05216
DILUPBiCG:  Solving for T, Initial residual = 0.0469335, Final residual = 8.17326e-09, No Iterations 4
DILUPBiCG:  Solving for T, Initial residual = 0.00294283, Final residual = 5.01823e-10, No Iterations 4
DILUPBiCG:  Solving for T, Initial residual = 0.000281599, Final residual = 3.32445e-09, No Iterations 3
DILUPBiCG:  Solving for T, Initial residual = 3.51503e-05, Final residual = 9.11084e-10, No Iterations 3
 T goes from min(T) [0 0 0 0 0 0 0] -0.0514693 to max(T) [0 0 0 0 0 0 0] 0.89142

ExecutionTime = 12.4 s  ClockTime = 248 s

Time = 1.54
Courant Number mean: 0.617942 max: 1.04196
DILUPBiCG:  Solving for T, Initial residual = 0.0473386, Final residual = 7.67297e-09, No Iterations 4
DILUPBiCG:  Solving for T, Initial residual = 0.00296581, Final residual = 4.72036e-10, No Iterations 4
DILUPBiCG:  Solving for T, Initial residual = 0.000285293, Final residual = 3.18118e-09, No Iterations 3
DILUPBiCG:  Solving for T, Initial residual = 3.54686e-05, Final residual = 8.44069e-10, No Iterations 3
 T goes from min(T) [0 0 0 0 0 0 0] -0.0562827 to max(T) [0 0 0 0 0 0 0] 0.886484

ExecutionTime = 12.53 s  ClockTime = 251 s

Time = 1.56
Courant Number mean: 0.615272 max: 1.03169
DILUPBiCG:  Solving for T, Initial residual = 0.0477117, Final residual = 7.18692e-09, No Iterations 4
DILUPBiCG:  Solving for T, Initial residual = 0.00299447, Final residual = 4.46675e-10, No Iterations 4
DILUPBiCG:  Solving for T, Initial residual = 0.000288796, Final residual = 3.02995e-09, No Iterations 3
DILUPBiCG:  Solving for T, Initial residual = 3.58168e-05, Final residual = 7.8278e-10, No Iterations 3
 T goes from min(T) [0 0 0 0 0 0 0] -0.0602219 to max(T) [0 0 0 0 0 0 0] 0.883062

ExecutionTime = 12.67 s  ClockTime = 253 s

Time = 1.58
Courant Number mean: 0.612863 max: 1.02131
DILUPBiCG:  Solving for T, Initial residual = 0.0479367, Final residual = 6.74559e-09, No Iterations 4
DILUPBiCG:  Solving for T, Initial residual = 0.00303158, Final residual = 4.1465e-10, No Iterations 4
DILUPBiCG:  Solving for T, Initial residual = 0.000290539, Final residual = 2.84333e-09, No Iterations 3
DILUPBiCG:  Solving for T, Initial residual = 3.60848e-05, Final residual = 7.15068e-10, No Iterations 3
 T goes from min(T) [0 0 0 0 0 0 0] -0.0601442 to max(T) [0 0 0 0 0 0 0] 0.885356

ExecutionTime = 12.79 s  ClockTime = 256 s

Time = 1.6
Courant Number mean: 0.610183 max: 1.01086
DILUPBiCG:  Solving for T, Initial residual = 0.0484511, Final residual = 6.26828e-09, No Iterations 4
DILUPBiCG:  Solving for T, Initial residual = 0.00304419, Final residual = 3.94951e-10, No Iterations 4
DILUPBiCG:  Solving for T, Initial residual = 0.00029451, Final residual = 2.71267e-09, No Iterations 3
DILUPBiCG:  Solving for T, Initial residual = 3.62485e-05, Final residual = 6.51457e-10, No Iterations 3
 T goes from min(T) [0 0 0 0 0 0 0] -0.065603 to max(T) [0 0 0 0 0 0 0] 0.880534

ExecutionTime = 12.92 s  ClockTime = 258 s

Time = 1.62
Courant Number mean: 0.607697 max: 1.00031
DILUPBiCG:  Solving for T, Initial residual = 0.0485684, Final residual = 5.8804e-09, No Iterations 4
DILUPBiCG:  Solving for T, Initial residual = 0.00308548, Final residual = 3.62611e-10, No Iterations 4
DILUPBiCG:  Solving for T, Initial residual = 0.000294776, Final residual = 2.50946e-09, No Iterations 3
DILUPBiCG:  Solving for T, Initial residual = 3.64531e-05, Final residual = 5.85996e-10, No Iterations 3
 T goes from min(T) [0 0 0 0 0 0 0] -0.0646287 to max(T) [0 0 0 0 0 0 0] 0.877619

ExecutionTime = 13.06 s  ClockTime = 261 s

Time = 1.64
Courant Number mean: 0.605008 max: 0.989691
DILUPBiCG:  Solving for T, Initial residual = 0.0490272, Final residual = 5.44201e-09, No Iterations 4
DILUPBiCG:  Solving for T, Initial residual = 0.00309645, Final residual = 3.45515e-10, No Iterations 4
DILUPBiCG:  Solving for T, Initial residual = 0.000299152, Final residual = 2.38115e-09, No Iterations 3
DILUPBiCG:  Solving for T, Initial residual = 3.65639e-05, Final residual = 5.2679e-10, No Iterations 3
 T goes from min(T) [0 0 0 0 0 0 0] -0.0697041 to max(T) [0 0 0 0 0 0 0] 0.8787

ExecutionTime = 13.19 s  ClockTime = 263 s

Time = 1.66
Courant Number mean: 0.602449 max: 0.978979
DILUPBiCG:  Solving for T, Initial residual = 0.049289, Final residual = 5.09228e-09, No Iterations 4
DILUPBiCG:  Solving for T, Initial residual = 0.00312143, Final residual = 3.14752e-10, No Iterations 4
DILUPBiCG:  Solving for T, Initial residual = 0.000299437, Final residual = 2.20253e-09, No Iterations 3
DILUPBiCG:  Solving for T, Initial residual = 3.66379e-05, Final residual = 4.69469e-10, No Iterations 3
 T goes from min(T) [0 0 0 0 0 0 0] -0.0699468 to max(T) [0 0 0 0 0 0 0] 0.873999

ExecutionTime = 13.32 s  ClockTime = 266 s

Time = 1.68
Courant Number mean: 0.59975 max: 0.968191
DILUPBiCG:  Solving for T, Initial residual = 0.0494658, Final residual = 4.69041e-09, No Iterations 4
DILUPBiCG:  Solving for T, Initial residual = 0.00314269, Final residual = 2.98898e-10, No Iterations 4
DILUPBiCG:  Solving for T, Initial residual = 0.000302131, Final residual = 2.06791e-09, No Iterations 3
DILUPBiCG:  Solving for T, Initial residual = 3.6732e-05, Final residual = 4.17076e-10, No Iterations 3
 T goes from min(T) [0 0 0 0 0 0 0] -0.0736427 to max(T) [0 0 0 0 0 0 0] 0.873475

ExecutionTime = 13.48 s  ClockTime = 269 s

Time = 1.7
Courant Number mean: 0.597123 max: 0.957321
DILUPBiCG:  Solving for T, Initial residual = 0.0499096, Final residual = 4.37189e-09, No Iterations 4
DILUPBiCG:  Solving for T, Initial residual = 0.00315488, Final residual = 2.70924e-10, No Iterations 4
DILUPBiCG:  Solving for T, Initial residual = 0.000303171, Final residual = 1.90957e-09, No Iterations 3
DILUPBiCG:  Solving for T, Initial residual = 3.68035e-05, Final residual = 3.69873e-10, No Iterations 3
 T goes from min(T) [0 0 0 0 0 0 0] -0.0762501 to max(T) [0 0 0 0 0 0 0] 0.871938

ExecutionTime = 13.61 s  ClockTime = 271 s

Time = 1.72
Courant Number mean: 0.594412 max: 0.946377
DILUPBiCG:  Solving for T, Initial residual = 0.0499323, Final residual = 4.01861e-09, No Iterations 4
DILUPBiCG:  Solving for T, Initial residual = 0.00317802, Final residual = 2.55848e-10, No Iterations 4
DILUPBiCG:  Solving for T, Initial residual = 0.000303788, Final residual = 1.76891e-09, No Iterations 3
DILUPBiCG:  Solving for T, Initial residual = 3.67674e-05, Final residual = 3.2822e-10, No Iterations 3
 T goes from min(T) [0 0 0 0 0 0 0] -0.0777671 to max(T) [0 0 0 0 0 0 0] 0.867361

ExecutionTime = 13.76 s  ClockTime = 274 s

Time = 1.74
Courant Number mean: 0.591721 max: 0.935356
DILUPBiCG:  Solving for T, Initial residual = 0.0504479, Final residual = 3.71406e-09, No Iterations 4
DILUPBiCG:  Solving for T, Initial residual = 0.00318464, Final residual = 2.31613e-10, No Iterations 4
DILUPBiCG:  Solving for T, Initial residual = 0.000305398, Final residual = 1.63277e-09, No Iterations 3
DILUPBiCG:  Solving for T, Initial residual = 3.6743e-05, Final residual = 2.89884e-10, No Iterations 3
 T goes from min(T) [0 0 0 0 0 0 0] -0.0808128 to max(T) [0 0 0 0 0 0 0] 0.868098

ExecutionTime = 13.89 s  ClockTime = 276 s

Time = 1.76
Courant Number mean: 0.588999 max: 0.924262
DILUPBiCG:  Solving for T, Initial residual = 0.0504605, Final residual = 3.40542e-09, No Iterations 4
DILUPBiCG:  Solving for T, Initial residual = 0.00319699, Final residual = 2.1642e-10, No Iterations 4
DILUPBiCG:  Solving for T, Initial residual = 0.000305002, Final residual = 1.49253e-09, No Iterations 3
DILUPBiCG:  Solving for T, Initial residual = 3.66304e-05, Final residual = 2.55867e-10, No Iterations 3
 T goes from min(T) [0 0 0 0 0 0 0] -0.0806645 to max(T) [0 0 0 0 0 0 0] 0.864906

ExecutionTime = 14.02 s  ClockTime = 279 s

Time = 1.78
Courant Number mean: 0.586248 max: 0.913097
DILUPBiCG:  Solving for T, Initial residual = 0.0508448, Final residual = 3.11774e-09, No Iterations 4
DILUPBiCG:  Solving for T, Initial residual = 0.00320851, Final residual = 1.95775e-10, No Iterations 4
DILUPBiCG:  Solving for T, Initial residual = 0.000306547, Final residual = 1.37812e-09, No Iterations 3
DILUPBiCG:  Solving for T, Initial residual = 3.65606e-05, Final residual = 2.25633e-10, No Iterations 3
 T goes from min(T) [0 0 0 0 0 0 0] -0.0843184 to max(T) [0 0 0 0 0 0 0] 0.862314

ExecutionTime = 14.15 s  ClockTime = 281 s

Time = 1.8
Courant Number mean: 0.583514 max: 0.901862
DILUPBiCG:  Solving for T, Initial residual = 0.0509945, Final residual = 2.85096e-09, No Iterations 4
DILUPBiCG:  Solving for T, Initial residual = 0.00321292, Final residual = 1.80971e-10, No Iterations 4
DILUPBiCG:  Solving for T, Initial residual = 0.000304669, Final residual = 1.24336e-09, No Iterations 3
DILUPBiCG:  Solving for T, Initial residual = 3.64228e-05, Final residual = 9.97859e-09, No Iterations 2
 T goes from min(T) [0 0 0 0 0 0 0] -0.0848299 to max(T) [0 0 0 0 0 0 0] 0.859223

ExecutionTime = 14.28 s  ClockTime = 284 s

Time = 1.82
Courant Number mean: 0.580707 max: 0.890561
DILUPBiCG:  Solving for T, Initial residual = 0.0511953, Final residual = 2.58332e-09, No Iterations 4
DILUPBiCG:  Solving for T, Initial residual = 0.00322272, Final residual = 9.60649e-09, No Iterations 3
DILUPBiCG:  Solving for T, Initial residual = 0.000306457, Final residual = 1.14578e-09, No Iterations 3
DILUPBiCG:  Solving for T, Initial residual = 3.62931e-05, Final residual = 9.46204e-09, No Iterations 2
 T goes from min(T) [0 0 0 0 0 0 0] -0.0880594 to max(T) [0 0 0 0 0 0 0] 0.857128

ExecutionTime = 14.41 s  ClockTime = 286 s

Time = 1.84
Courant Number mean: 0.577961 max: 0.879191
DILUPBiCG:  Solving for T, Initial residual = 0.0514416, Final residual = 2.35212e-09, No Iterations 4
DILUPBiCG:  Solving for T, Initial residual = 0.00323099, Final residual = 8.90026e-09, No Iterations 3
DILUPBiCG:  Solving for T, Initial residual = 0.000304539, Final residual = 1.02563e-09, No Iterations 3
DILUPBiCG:  Solving for T, Initial residual = 3.60914e-05, Final residual = 8.81776e-09, No Iterations 2
 T goes from min(T) [0 0 0 0 0 0 0] -0.0881125 to max(T) [0 0 0 0 0 0 0] 0.857184

ExecutionTime = 14.54 s  ClockTime = 289 s

Time = 1.86
Courant Number mean: 0.575103 max: 0.867761
DILUPBiCG:  Solving for T, Initial residual = 0.051577, Final residual = 2.11202e-09, No Iterations 4
DILUPBiCG:  Solving for T, Initial residual = 0.00322493, Final residual = 8.10833e-09, No Iterations 3
DILUPBiCG:  Solving for T, Initial residual = 0.000306029, Final residual = 9.38177e-10, No Iterations 3
DILUPBiCG:  Solving for T, Initial residual = 3.58244e-05, Final residual = 8.30671e-09, No Iterations 2
 T goes from min(T) [0 0 0 0 0 0 0] -0.0906812 to max(T) [0 0 0 0 0 0 0] 0.853782

ExecutionTime = 14.68 s  ClockTime = 291 s

Time = 1.88
Courant Number mean: 0.572344 max: 0.856264
DILUPBiCG:  Solving for T, Initial residual = 0.0518443, Final residual = 1.91071e-09, No Iterations 4
DILUPBiCG:  Solving for T, Initial residual = 0.00324333, Final residual = 7.43195e-09, No Iterations 3
DILUPBiCG:  Solving for T, Initial residual = 0.000303557, Final residual = 8.36279e-10, No Iterations 3
DILUPBiCG:  Solving for T, Initial residual = 3.56045e-05, Final residual = 7.71082e-09, No Iterations 2
 T goes from min(T) [0 0 0 0 0 0 0] -0.0902859 to max(T) [0 0 0 0 0 0 0] 0.852969

ExecutionTime = 14.81 s  ClockTime = 294 s

Time = 1.9
Courant Number mean: 0.569439 max: 0.844713
DILUPBiCG:  Solving for T, Initial residual = 0.0519255, Final residual = 1.70129e-09, No Iterations 4
DILUPBiCG:  Solving for T, Initial residual = 0.00321878, Final residual = 6.73268e-09, No Iterations 3
DILUPBiCG:  Solving for T, Initial residual = 0.000304168, Final residual = 7.58164e-10, No Iterations 3
DILUPBiCG:  Solving for T, Initial residual = 3.53366e-05, Final residual = 7.22498e-09, No Iterations 2
 T goes from min(T) [0 0 0 0 0 0 0] -0.0942378 to max(T) [0 0 0 0 0 0 0] 0.846987

ExecutionTime = 14.94 s  ClockTime = 296 s

Time = 1.92
Courant Number mean: 0.566666 max: 0.833098
DILUPBiCG:  Solving for T, Initial residual = 0.0521251, Final residual = 1.52488e-09, No Iterations 4
DILUPBiCG:  Solving for T, Initial residual = 0.00324675, Final residual = 6.10707e-09, No Iterations 3
DILUPBiCG:  Solving for T, Initial residual = 0.000302183, Final residual = 6.73549e-10, No Iterations 3
DILUPBiCG:  Solving for T, Initial residual = 3.51103e-05, Final residual = 6.68982e-09, No Iterations 2
 T goes from min(T) [0 0 0 0 0 0 0] -0.09373 to max(T) [0 0 0 0 0 0 0] 0.846965

ExecutionTime = 15.07 s  ClockTime = 299 s

Time = 1.94
Courant Number mean: 0.563718 max: 0.821433
DILUPBiCG:  Solving for T, Initial residual = 0.0522762, Final residual = 1.34636e-09, No Iterations 4
DILUPBiCG:  Solving for T, Initial residual = 0.00321782, Final residual = 5.50478e-09, No Iterations 3
DILUPBiCG:  Solving for T, Initial residual = 0.000301895, Final residual = 6.04939e-10, No Iterations 3
DILUPBiCG:  Solving for T, Initial residual = 3.48294e-05, Final residual = 6.23314e-09, No Iterations 2
 T goes from min(T) [0 0 0 0 0 0 0] -0.0969779 to max(T) [0 0 0 0 0 0 0] 0.844605

ExecutionTime = 15.2 s  ClockTime = 301 s

Time = 1.96
Courant Number mean: 0.560931 max: 0.809706
DILUPBiCG:  Solving for T, Initial residual = 0.0524469, Final residual = 1.1944e-09, No Iterations 4
DILUPBiCG:  Solving for T, Initial residual = 0.00323862, Final residual = 4.93959e-09, No Iterations 3
DILUPBiCG:  Solving for T, Initial residual = 0.000299824, Final residual = 5.34156e-10, No Iterations 3
DILUPBiCG:  Solving for T, Initial residual = 3.4506e-05, Final residual = 5.73343e-09, No Iterations 2
 T goes from min(T) [0 0 0 0 0 0 0] -0.0971416 to max(T) [0 0 0 0 0 0 0] 0.842147

ExecutionTime = 15.33 s  ClockTime = 304 s

Time = 1.98
Courant Number mean: 0.557946 max: 0.797935
DILUPBiCG:  Solving for T, Initial residual = 0.0525685, Final residual = 1.04346e-09, No Iterations 4
DILUPBiCG:  Solving for T, Initial residual = 0.00321804, Final residual = 4.43825e-09, No Iterations 3
DILUPBiCG:  Solving for T, Initial residual = 0.000299148, Final residual = 4.74849e-10, No Iterations 3
DILUPBiCG:  Solving for T, Initial residual = 3.41009e-05, Final residual = 5.29344e-09, No Iterations 2
 T goes from min(T) [0 0 0 0 0 0 0] -0.0991958 to max(T) [0 0 0 0 0 0 0] 0.842751

ExecutionTime = 15.46 s  ClockTime = 306 s

Time = 2
Courant Number mean: 0.555144 max: 0.786106
DILUPBiCG:  Solving for T, Initial residual = 0.0527316, Final residual = 9.14599e-10, No Iterations 4
DILUPBiCG:  Solving for T, Initial residual = 0.0032218, Final residual = 3.92494e-09, No Iterations 3
DILUPBiCG:  Solving for T, Initial residual = 0.000296953, Final residual = 4.16829e-10, No Iterations 3
DILUPBiCG:  Solving for T, Initial residual = 3.37527e-05, Final residual = 4.84536e-09, No Iterations 2
 T goes from min(T) [0 0 0 0 0 0 0] -0.09988 to max(T) [0 0 0 0 0 0 0] 0.838422

ExecutionTime = 15.6 s  ClockTime = 309 s

Time = 2.02
Courant Number mean: 0.552141 max: 0.774257
DILUPBiCG:  Solving for T, Initial residual = 0.0528345, Final residual = 7.89114e-10, No Iterations 4
DILUPBiCG:  Solving for T, Initial residual = 0.00321327, Final residual = 3.50111e-09, No Iterations 3
DILUPBiCG:  Solving for T, Initial residual = 0.000295307, Final residual = 3.66227e-10, No Iterations 3
DILUPBiCG:  Solving for T, Initial residual = 3.33451e-05, Final residual = 4.44507e-09, No Iterations 2
 T goes from min(T) [0 0 0 0 0 0 0] -0.101118 to max(T) [0 0 0 0 0 0 0] 0.839745

ExecutionTime = 15.73 s  ClockTime = 311 s

Time = 2.04
Courant Number mean: 0.549308 max: 0.762353
DILUPBiCG:  Solving for T, Initial residual = 0.0530134, Final residual = 6.82136e-10, No Iterations 4
DILUPBiCG:  Solving for T, Initial residual = 0.00319645, Final residual = 3.0573e-09, No Iterations 3
DILUPBiCG:  Solving for T, Initial residual = 0.000293466, Final residual = 3.18965e-10, No Iterations 3
DILUPBiCG:  Solving for T, Initial residual = 3.2996e-05, Final residual = 4.05106e-09, No Iterations 2
 T goes from min(T) [0 0 0 0 0 0 0] -0.102188 to max(T) [0 0 0 0 0 0 0] 0.833961

ExecutionTime = 15.87 s  ClockTime = 314 s

Time = 2.06
Courant Number mean: 0.546304 max: 0.75041
DILUPBiCG:  Solving for T, Initial residual = 0.0529982, Final residual = 5.80062e-10, No Iterations 4
DILUPBiCG:  Solving for T, Initial residual = 0.00320034, Final residual = 2.70085e-09, No Iterations 3
DILUPBiCG:  Solving for T, Initial residual = 0.000290894, Final residual = 2.76337e-10, No Iterations 3
DILUPBiCG:  Solving for T, Initial residual = 3.25791e-05, Final residual = 3.68911e-09, No Iterations 2
 T goes from min(T) [0 0 0 0 0 0 0] -0.103749 to max(T) [0 0 0 0 0 0 0] 0.835991

ExecutionTime = 16 s  ClockTime = 317 s

Time = 2.08
Courant Number mean: 0.543427 max: 0.738416
DILUPBiCG:  Solving for T, Initial residual = 0.0532838, Final residual = 4.94066e-10, No Iterations 4
DILUPBiCG:  Solving for T, Initial residual = 0.00317346, Final residual = 2.32547e-09, No Iterations 3
DILUPBiCG:  Solving for T, Initial residual = 0.000289238, Final residual = 2.39051e-10, No Iterations 3
DILUPBiCG:  Solving for T, Initial residual = 3.2202e-05, Final residual = 3.3479e-09, No Iterations 2
 T goes from min(T) [0 0 0 0 0 0 0] -0.104248 to max(T) [0 0 0 0 0 0 0] 0.829123

ExecutionTime = 16.13 s  ClockTime = 319 s

Time = 2.1
Courant Number mean: 0.540421 max: 0.726385
DILUPBiCG:  Solving for T, Initial residual = 0.053171, Final residual = 4.12521e-10, No Iterations 4
DILUPBiCG:  Solving for T, Initial residual = 0.00317672, Final residual = 2.03593e-09, No Iterations 3
DILUPBiCG:  Solving for T, Initial residual = 0.000286023, Final residual = 2.04234e-10, No Iterations 3
DILUPBiCG:  Solving for T, Initial residual = 3.17478e-05, Final residual = 3.02329e-09, No Iterations 2
 T goes from min(T) [0 0 0 0 0 0 0] -0.106041 to max(T) [0 0 0 0 0 0 0] 0.831835

ExecutionTime = 16.26 s  ClockTime = 322 s

Time = 2.12
Courant Number mean: 0.537505 max: 0.71431
DILUPBiCG:  Solving for T, Initial residual = 0.0534928, Final residual = 3.44674e-10, No Iterations 4
DILUPBiCG:  Solving for T, Initial residual = 0.00315188, Final residual = 1.72966e-09, No Iterations 3
DILUPBiCG:  Solving for T, Initial residual = 0.000284367, Final residual = 1.7477e-10, No Iterations 3
DILUPBiCG:  Solving for T, Initial residual = 3.13191e-05, Final residual = 2.72822e-09, No Iterations 2
 T goes from min(T) [0 0 0 0 0 0 0] -0.106185 to max(T) [0 0 0 0 0 0 0] 0.825192

ExecutionTime = 16.4 s  ClockTime = 324 s

Time = 2.14
Courant Number mean: 0.534497 max: 0.702201
DILUPBiCG:  Solving for T, Initial residual = 0.0533492, Final residual = 2.81558e-10, No Iterations 4
DILUPBiCG:  Solving for T, Initial residual = 0.00314439, Final residual = 1.48848e-09, No Iterations 3
DILUPBiCG:  Solving for T, Initial residual = 0.000281234, Final residual = 1.46996e-10, No Iterations 3
DILUPBiCG:  Solving for T, Initial residual = 3.08348e-05, Final residual = 2.44899e-09, No Iterations 2
 T goes from min(T) [0 0 0 0 0 0 0] -0.108048 to max(T) [0 0 0 0 0 0 0] 0.827565

ExecutionTime = 16.52 s  ClockTime = 326 s

Time = 2.16
Courant Number mean: 0.531547 max: 0.690052
DILUPBiCG:  Solving for T, Initial residual = 0.053659, Final residual = 2.29962e-10, No Iterations 4
DILUPBiCG:  Solving for T, Initial residual = 0.00312772, Final residual = 1.24632e-09, No Iterations 3
DILUPBiCG:  Solving for T, Initial residual = 0.000278872, Final residual = 1.24226e-10, No Iterations 3
DILUPBiCG:  Solving for T, Initial residual = 3.03985e-05, Final residual = 2.19976e-09, No Iterations 2
 T goes from min(T) [0 0 0 0 0 0 0] -0.108078 to max(T) [0 0 0 0 0 0 0] 0.823837

ExecutionTime = 16.66 s  ClockTime = 329 s

Time = 2.18
Courant Number mean: 0.528536 max: 0.677871
DILUPBiCG:  Solving for T, Initial residual = 0.0534955, Final residual = 1.83016e-10, No Iterations 4
DILUPBiCG:  Solving for T, Initial residual = 0.00310464, Final residual = 1.05542e-09, No Iterations 3
DILUPBiCG:  Solving for T, Initial residual = 0.000275925, Final residual = 1.03153e-10, No Iterations 3
DILUPBiCG:  Solving for T, Initial residual = 2.98947e-05, Final residual = 1.96427e-09, No Iterations 2
 T goes from min(T) [0 0 0 0 0 0 0] -0.109811 to max(T) [0 0 0 0 0 0 0] 0.823414

ExecutionTime = 16.82 s  ClockTime = 332 s

Time = 2.2
Courant Number mean: 0.525556 max: 0.665657
DILUPBiCG:  Solving for T, Initial residual = 0.0537599, Final residual = 1.45068e-10, No Iterations 4
DILUPBiCG:  Solving for T, Initial residual = 0.00309801, Final residual = 8.66725e-10, No Iterations 3
DILUPBiCG:  Solving for T, Initial residual = 0.000272848, Final residual = 8.51755e-11, No Iterations 3
DILUPBiCG:  Solving for T, Initial residual = 2.94556e-05, Final residual = 1.75642e-09, No Iterations 2
 T goes from min(T) [0 0 0 0 0 0 0] -0.10996 to max(T) [0 0 0 0 0 0 0] 0.822061

ExecutionTime = 16.95 s  ClockTime = 335 s

Time = 2.22
Courant Number mean: 0.522542 max: 0.653414
DILUPBiCG:  Solving for T, Initial residual = 0.0536329, Final residual = 1.11648e-10, No Iterations 4
DILUPBiCG:  Solving for T, Initial residual = 0.00306389, Final residual = 7.43083e-10, No Iterations 3
DILUPBiCG:  Solving for T, Initial residual = 0.000270434, Final residual = 6.93121e-11, No Iterations 3
DILUPBiCG:  Solving for T, Initial residual = 2.89442e-05, Final residual = 1.56122e-09, No Iterations 2
 T goes from min(T) [0 0 0 0 0 0 0] -0.111331 to max(T) [0 0 0 0 0 0 0] 0.819563

ExecutionTime = 17.08 s  ClockTime = 337 s

Time = 2.24
Courant Number mean: 0.519536 max: 0.641142
DILUPBiCG:  Solving for T, Initial residual = 0.0537806, Final residual = 8.5198e-11, No Iterations 4
DILUPBiCG:  Solving for T, Initial residual = 0.00306202, Final residual = 6.62416e-10, No Iterations 3
DILUPBiCG:  Solving for T, Initial residual = 0.000266419, Final residual = 5.94904e-11, No Iterations 3
DILUPBiCG:  Solving for T, Initial residual = 2.8448e-05, Final residual = 1.38765e-09, No Iterations 2
 T goes from min(T) [0 0 0 0 0 0 0] -0.111822 to max(T) [0 0 0 0 0 0 0] 0.820025

ExecutionTime = 17.21 s  ClockTime = 340 s

Time = 2.26
Courant Number mean: 0.516519 max: 0.628845
DILUPBiCG:  Solving for T, Initial residual = 0.0537538, Final residual = 6.27379e-11, No Iterations 4
DILUPBiCG:  Solving for T, Initial residual = 0.00302316, Final residual = 6.40288e-10, No Iterations 3
DILUPBiCG:  Solving for T, Initial residual = 0.000264247, Final residual = 5.47193e-11, No Iterations 3
DILUPBiCG:  Solving for T, Initial residual = 2.79559e-05, Final residual = 1.22524e-09, No Iterations 2
 T goes from min(T) [0 0 0 0 0 0 0] -0.112565 to max(T) [0 0 0 0 0 0 0] 0.816142

ExecutionTime = 17.35 s  ClockTime = 342 s

Time = 2.28
Courant Number mean: 0.513492 max: 0.616524
DILUPBiCG:  Solving for T, Initial residual = 0.0538107, Final residual = 8.17801e-09, No Iterations 3
DILUPBiCG:  Solving for T, Initial residual = 0.00301905, Final residual = 7.8242e-10, No Iterations 3
DILUPBiCG:  Solving for T, Initial residual = 0.000259829, Final residual = 8.86438e-09, No Iterations 2
DILUPBiCG:  Solving for T, Initial residual = 2.74625e-05, Final residual = 1.07662e-09, No Iterations 2
 T goes from min(T) [0 0 0 0 0 0 0] -0.113617 to max(T) [0 0 0 0 0 0 0] 0.817843

ExecutionTime = 17.48 s  ClockTime = 345 s

Time = 2.3
Courant Number mean: 0.510471 max: 0.60418
DILUPBiCG:  Solving for T, Initial residual = 0.0538318, Final residual = 6.51351e-09, No Iterations 3
DILUPBiCG:  Solving for T, Initial residual = 0.00298091, Final residual = 6.11687e-09, No Iterations 3
DILUPBiCG:  Solving for T, Initial residual = 0.00025767, Final residual = 7.66735e-09, No Iterations 2
DILUPBiCG:  Solving for T, Initial residual = 2.69026e-05, Final residual = 9.3052e-10, No Iterations 2
 T goes from min(T) [0 0 0 0 0 0 0] -0.114248 to max(T) [0 0 0 0 0 0 0] 0.813572

ExecutionTime = 17.61 s  ClockTime = 347 s

Time = 2.32
Courant Number mean: 0.507428 max: 0.591817
DILUPBiCG:  Solving for T, Initial residual = 0.053832, Final residual = 5.13478e-09, No Iterations 3
DILUPBiCG:  Solving for T, Initial residual = 0.0029697, Final residual = 6.3146e-10, No Iterations 3
DILUPBiCG:  Solving for T, Initial residual = 0.000253088, Final residual = 6.31141e-09, No Iterations 2
DILUPBiCG:  Solving for T, Initial residual = 2.64646e-05, Final residual = 7.81507e-10, No Iterations 2
 T goes from min(T) [0 0 0 0 0 0 0] -0.115264 to max(T) [0 0 0 0 0 0 0] 0.815581

ExecutionTime = 17.74 s  ClockTime = 350 s

Time = 2.34
Courant Number mean: 0.504402 max: 0.579436
DILUPBiCG:  Solving for T, Initial residual = 0.0538644, Final residual = 3.96953e-09, No Iterations 3
DILUPBiCG:  Solving for T, Initial residual = 0.00293605, Final residual = 2.46845e-10, No Iterations 3
DILUPBiCG:  Solving for T, Initial residual = 0.000250637, Final residual = 5.03046e-09, No Iterations 2
DILUPBiCG:  Solving for T, Initial residual = 2.58698e-05, Final residual = 6.23569e-10, No Iterations 2
 T goes from min(T) [0 0 0 0 0 0 0] -0.115929 to max(T) [0 0 0 0 0 0 0] 0.811486

ExecutionTime = 17.87 s  ClockTime = 352 s

Time = 2.36
Courant Number mean: 0.501348 max: 0.56704
DILUPBiCG:  Solving for T, Initial residual = 0.0538394, Final residual = 3.00655e-09, No Iterations 3
DILUPBiCG:  Solving for T, Initial residual = 0.00292099, Final residual = 1.32149e-10, No Iterations 3
DILUPBiCG:  Solving for T, Initial residual = 0.000246284, Final residual = 3.73811e-09, No Iterations 2
DILUPBiCG:  Solving for T, Initial residual = 2.54137e-05, Final residual = 4.56123e-10, No Iterations 2
 T goes from min(T) [0 0 0 0 0 0 0] -0.116643 to max(T) [0 0 0 0 0 0 0] 0.813416

ExecutionTime = 18 s  ClockTime = 355 s

Time = 2.38
Courant Number mean: 0.498316 max: 0.55463
DILUPBiCG:  Solving for T, Initial residual = 0.0538597, Final residual = 2.27008e-09, No Iterations 3
DILUPBiCG:  Solving for T, Initial residual = 0.00288948, Final residual = 8.55331e-11, No Iterations 3
DILUPBiCG:  Solving for T, Initial residual = 0.000243135, Final residual = 2.50703e-09, No Iterations 2
DILUPBiCG:  Solving for T, Initial residual = 2.48206e-05, Final residual = 3.16093e-10, No Iterations 2
 T goes from min(T) [0 0 0 0 0 0 0] -0.11724 to max(T) [0 0 0 0 0 0 0] 0.809913

ExecutionTime = 18.13 s  ClockTime = 357 s

Time = 2.4
Courant Number mean: 0.495255 max: 0.542209
DILUPBiCG:  Solving for T, Initial residual = 0.0538297, Final residual = 2.72841e-09, No Iterations 3
DILUPBiCG:  Solving for T, Initial residual = 0.00286931, Final residual = 5.17063e-11, No Iterations 3
DILUPBiCG:  Solving for T, Initial residual = 0.000239306, Final residual = 1.515e-09, No Iterations 2
DILUPBiCG:  Solving for T, Initial residual = 2.43408e-05, Final residual = 2.39667e-10, No Iterations 2
 T goes from min(T) [0 0 0 0 0 0 0] -0.117603 to max(T) [0 0 0 0 0 0 0] 0.811824

ExecutionTime = 18.26 s  ClockTime = 360 s

Time = 2.42
Courant Number mean: 0.492218 max: 0.529777
DILUPBiCG:  Solving for T, Initial residual = 0.0538136, Final residual = 8.01189e-10, No Iterations 3
DILUPBiCG:  Solving for T, Initial residual = 0.00283815, Final residual = 2.8079e-11, No Iterations 3
DILUPBiCG:  Solving for T, Initial residual = 0.000235161, Final residual = 8.8962e-10, No Iterations 2
DILUPBiCG:  Solving for T, Initial residual = 2.37655e-05, Final residual = 1.5189e-10, No Iterations 2
 T goes from min(T) [0 0 0 0 0 0 0] -0.117983 to max(T) [0 0 0 0 0 0 0] 0.808847

ExecutionTime = 18.41 s  ClockTime = 362 s

Time = 2.44
Courant Number mean: 0.489155 max: 0.517339
DILUPBiCG:  Solving for T, Initial residual = 0.0537958, Final residual = 2.64335e-10, No Iterations 3
DILUPBiCG:  Solving for T, Initial residual = 0.00281553, Final residual = 5.37057e-09, No Iterations 2
DILUPBiCG:  Solving for T, Initial residual = 0.000231956, Final residual = 6.22391e-10, No Iterations 2
DILUPBiCG:  Solving for T, Initial residual = 2.32866e-05, Final residual = 1.08136e-10, No Iterations 2
 T goes from min(T) [0 0 0 0 0 0 0] -0.117958 to max(T) [0 0 0 0 0 0 0] 0.810241

ExecutionTime = 18.54 s  ClockTime = 365 s

Time = 2.46
Courant Number mean: 0.486111 max: 0.504895
DILUPBiCG:  Solving for T, Initial residual = 0.0537585, Final residual = 9.06233e-11, No Iterations 3
DILUPBiCG:  Solving for T, Initial residual = 0.00278384, Final residual = 3.52596e-09, No Iterations 2
DILUPBiCG:  Solving for T, Initial residual = 0.000227462, Final residual = 4.76309e-10, No Iterations 2
DILUPBiCG:  Solving for T, Initial residual = 2.27137e-05, Final residual = 1.022e-10, No Iterations 2
 T goes from min(T) [0 0 0 0 0 0 0] -0.119262 to max(T) [0 0 0 0 0 0 0] 0.808243

ExecutionTime = 18.67 s  ClockTime = 367 s

Time = 2.48
Courant Number mean: 0.483052 max: 0.492448
DILUPBiCG:  Solving for T, Initial residual = 0.0537269, Final residual = 1.28724e-11, No Iterations 3
DILUPBiCG:  Solving for T, Initial residual = 0.00276087, Final residual = 1.98358e-09, No Iterations 2
DILUPBiCG:  Solving for T, Initial residual = 0.000224393, Final residual = 3.21778e-10, No Iterations 2
DILUPBiCG:  Solving for T, Initial residual = 2.22192e-05, Final residual = 4.27036e-11, No Iterations 2
 T goes from min(T) [0 0 0 0 0 0 0] -0.119934 to max(T) [0 0 0 0 0 0 0] 0.808604

ExecutionTime = 18.8 s  ClockTime = 369 s

Time = 2.5
Courant Number mean: 0.48 max: 0.48
DILUPBiCG:  Solving for T, Initial residual = 0.0536779, Final residual = 1.64635e-18, No Iterations 2
DILUPBiCG:  Solving for T, Initial residual = 0.00272691, Final residual = 9.63374e-20, No Iterations 2
DILUPBiCG:  Solving for T, Initial residual = 0.000219814, Final residual = 4.41591e-21, No Iterations 2
DILUPBiCG:  Solving for T, Initial residual = 2.16502e-05, Final residual = 3.62942e-22, No Iterations 2
 T goes from min(T) [0 0 0 0 0 0 0] -0.119911 to max(T) [0 0 0 0 0 0 0] 0.808018

ExecutionTime = 18.97 s  ClockTime = 372 s

Time = 2.52
Courant Number mean: 0.483052 max: 0.492448
DILUPBiCG:  Solving for T, Initial residual = 0.0536257, Final residual = 1.90014e-11, No Iterations 3
DILUPBiCG:  Solving for T, Initial residual = 0.0027175, Final residual = 9.67074e-10, No Iterations 2
DILUPBiCG:  Solving for T, Initial residual = 0.000217904, Final residual = 9.69674e-11, No Iterations 2
DILUPBiCG:  Solving for T, Initial residual = 2.13113e-05, Final residual = 1.38587e-11, No Iterations 2
 T goes from min(T) [0 0 0 0 0 0 0] -0.121271 to max(T) [0 0 0 0 0 0 0] 0.806784

ExecutionTime = 19.1 s  ClockTime = 374 s

Time = 2.54
Courant Number mean: 0.486111 max: 0.504895
DILUPBiCG:  Solving for T, Initial residual = 0.0535757, Final residual = 1.05897e-10, No Iterations 3
DILUPBiCG:  Solving for T, Initial residual = 0.00269565, Final residual = 2.2315e-09, No Iterations 2
DILUPBiCG:  Solving for T, Initial residual = 0.000214793, Final residual = 1.12e-09, No Iterations 2
DILUPBiCG:  Solving for T, Initial residual = 2.09046e-05, Final residual = 3.7265e-11, No Iterations 2
 T goes from min(T) [0 0 0 0 0 0 0] -0.120584 to max(T) [0 0 0 0 0 0 0] 0.807925

ExecutionTime = 19.22 s  ClockTime = 376 s

Time = 2.56
Courant Number mean: 0.489155 max: 0.517339
DILUPBiCG:  Solving for T, Initial residual = 0.0534934, Final residual = 2.97859e-10, No Iterations 3
DILUPBiCG:  Solving for T, Initial residual = 0.00268245, Final residual = 6.46722e-09, No Iterations 2
DILUPBiCG:  Solving for T, Initial residual = 0.000212786, Final residual = 2.30073e-09, No Iterations 2
DILUPBiCG:  Solving for T, Initial residual = 2.05364e-05, Final residual = 6.9598e-11, No Iterations 2
 T goes from min(T) [0 0 0 0 0 0 0] -0.121567 to max(T) [0 0 0 0 0 0 0] 0.804449

ExecutionTime = 19.38 s  ClockTime = 378 s

Time = 2.58
Courant Number mean: 0.492218 max: 0.529777
DILUPBiCG:  Solving for T, Initial residual = 0.053437, Final residual = 6.34718e-10, No Iterations 3
DILUPBiCG:  Solving for T, Initial residual = 0.00266242, Final residual = 2.60872e-11, No Iterations 3
DILUPBiCG:  Solving for T, Initial residual = 0.000209582, Final residual = 3.20084e-09, No Iterations 2
DILUPBiCG:  Solving for T, Initial residual = 2.01492e-05, Final residual = 1.10732e-10, No Iterations 2
 T goes from min(T) [0 0 0 0 0 0 0] -0.121968 to max(T) [0 0 0 0 0 0 0] 0.807679

ExecutionTime = 19.51 s  ClockTime = 380 s

Time = 2.6
Courant Number mean: 0.495255 max: 0.542209
DILUPBiCG:  Solving for T, Initial residual = 0.0533286, Final residual = 1.14036e-09, No Iterations 3
DILUPBiCG:  Solving for T, Initial residual = 0.00264502, Final residual = 4.74973e-11, No Iterations 3
DILUPBiCG:  Solving for T, Initial residual = 0.000207414, Final residual = 4.01212e-09, No Iterations 2
DILUPBiCG:  Solving for T, Initial residual = 1.97566e-05, Final residual = 1.61862e-10, No Iterations 2
 T goes from min(T) [0 0 0 0 0 0 0] -0.123236 to max(T) [0 0 0 0 0 0 0] 0.801418

ExecutionTime = 19.63 s  ClockTime = 382 s

Time = 2.62
Courant Number mean: 0.498316 max: 0.55463
DILUPBiCG:  Solving for T, Initial residual = 0.0532616, Final residual = 1.84668e-09, No Iterations 3
DILUPBiCG:  Solving for T, Initial residual = 0.0026261, Final residual = 7.62689e-11, No Iterations 3
DILUPBiCG:  Solving for T, Initial residual = 0.000204171, Final residual = 4.80585e-09, No Iterations 2
DILUPBiCG:  Solving for T, Initial residual = 1.93857e-05, Final residual = 2.18885e-10, No Iterations 2
 T goes from min(T) [0 0 0 0 0 0 0] -0.122861 to max(T) [0 0 0 0 0 0 0] 0.807099

ExecutionTime = 19.76 s  ClockTime = 385 s

Time = 2.64
Courant Number mean: 0.501348 max: 0.56704
DILUPBiCG:  Solving for T, Initial residual = 0.0531292, Final residual = 2.76724e-09, No Iterations 3
DILUPBiCG:  Solving for T, Initial residual = 0.00260529, Final residual = 1.11686e-10, No Iterations 3
[...]
DILUPBiCG:  Solving for T, Initial residual = 2.33776e-05, Final residual = 7.99616e-09, No Iterations 2
 T goes from min(T) [0 0 0 0 0 0 0] -0.147407 to max(T) [0 0 0 0 0 0 0] 0.764901

ExecutionTime = 38.78 s  ClockTime = 670 s

Time = 5.36
Courant Number mean: 0.739739 max: 1.44553
DILUPBiCG:  Solving for T, Initial residual = 0.0282456, Final residual = 6.44367e-09, No Iterations 4
DILUPBiCG:  Solving for T, Initial residual = 0.00154479, Final residual = 5.93316e-10, No Iterations 4
DILUPBiCG:  Solving for T, Initial residual = 0.000159744, Final residual = 5.92563e-09, No Iterations 3
DILUPBiCG:  Solving for T, Initial residual = 2.41012e-05, Final residual = 7.42757e-09, No Iterations 2
 T goes from min(T) [0 0 0 0 0 0 0] -0.147747 to max(T) [0 0 0 0 0 0 0] 0.765682

ExecutionTime = 38.92 s  ClockTime = 672 s

Time = 5.38
Courant Number mean: 0.738857 max: 1.44264
DILUPBiCG:  Solving for T, Initial residual = 0.0284092, Final residual = 6.11119e-09, No Iterations 4
DILUPBiCG:  Solving for T, Initial residual = 0.00157645, Final residual = 5.39694e-10, No Iterations 4
DILUPBiCG:  Solving for T, Initial residual = 0.000162981, Final residual = 5.17937e-09, No Iterations 3
DILUPBiCG:  Solving for T, Initial residual = 2.49671e-05, Final residual = 7.13446e-09, No Iterations 2
 T goes from min(T) [0 0 0 0 0 0 0] -0.147742 to max(T) [0 0 0 0 0 0 0] 0.764755

ExecutionTime = 39.05 s  ClockTime = 674 s

Time = 5.4
Courant Number mean: 0.737589 max: 1.43961
DILUPBiCG:  Solving for T, Initial residual = 0.0285707, Final residual = 5.91807e-09, No Iterations 4
DILUPBiCG:  Solving for T, Initial residual = 0.00160884, Final residual = 5.0466e-10, No Iterations 4
DILUPBiCG:  Solving for T, Initial residual = 0.000168809, Final residual = 4.21198e-09, No Iterations 3
DILUPBiCG:  Solving for T, Initial residual = 2.57023e-05, Final residual = 6.79831e-09, No Iterations 2
 T goes from min(T) [0 0 0 0 0 0 0] -0.147284 to max(T) [0 0 0 0 0 0 0] 0.764184

ExecutionTime = 39.18 s  ClockTime = 676 s

Time = 5.42
Courant Number mean: 0.736648 max: 1.4364
DILUPBiCG:  Solving for T, Initial residual = 0.0287362, Final residual = 5.7329e-09, No Iterations 4
DILUPBiCG:  Solving for T, Initial residual = 0.00163271, Final residual = 4.79472e-10, No Iterations 4
DILUPBiCG:  Solving for T, Initial residual = 0.000172029, Final residual = 3.40618e-09, No Iterations 3
DILUPBiCG:  Solving for T, Initial residual = 2.65463e-05, Final residual = 6.45972e-09, No Iterations 2
 T goes from min(T) [0 0 0 0 0 0 0] -0.146257 to max(T) [0 0 0 0 0 0 0] 0.758969

ExecutionTime = 39.32 s  ClockTime = 678 s

Time = 5.44
Courant Number mean: 0.735227 max: 1.43307
DILUPBiCG:  Solving for T, Initial residual = 0.0289731, Final residual = 5.61524e-09, No Iterations 4
DILUPBiCG:  Solving for T, Initial residual = 0.00166338, Final residual = 4.63049e-10, No Iterations 4
DILUPBiCG:  Solving for T, Initial residual = 0.00017645, Final residual = 2.68322e-09, No Iterations 3
DILUPBiCG:  Solving for T, Initial residual = 2.71681e-05, Final residual = 6.68725e-09, No Iterations 2
 T goes from min(T) [0 0 0 0 0 0 0] -0.146461 to max(T) [0 0 0 0 0 0 0] 0.76088

ExecutionTime = 39.45 s  ClockTime = 680 s

Time = 5.46
Courant Number mean: 0.734229 max: 1.42956
DILUPBiCG:  Solving for T, Initial residual = 0.0291752, Final residual = 5.50842e-09, No Iterations 4
DILUPBiCG:  Solving for T, Initial residual = 0.00169496, Final residual = 4.51333e-10, No Iterations 4
DILUPBiCG:  Solving for T, Initial residual = 0.000179858, Final residual = 2.15364e-09, No Iterations 3
DILUPBiCG:  Solving for T, Initial residual = 2.77713e-05, Final residual = 6.99265e-09, No Iterations 2
 T goes from min(T) [0 0 0 0 0 0 0] -0.146164 to max(T) [0 0 0 0 0 0 0] 0.76344

ExecutionTime = 39.6 s  ClockTime = 682 s

Time = 5.48
Courant Number mean: 0.732657 max: 1.42591
DILUPBiCG:  Solving for T, Initial residual = 0.0294002, Final residual = 5.4787e-09, No Iterations 4
DILUPBiCG:  Solving for T, Initial residual = 0.00172181, Final residual = 4.48176e-10, No Iterations 4
DILUPBiCG:  Solving for T, Initial residual = 0.000183041, Final residual = 1.59863e-09, No Iterations 3
DILUPBiCG:  Solving for T, Initial residual = 2.83554e-05, Final residual = 6.52681e-09, No Iterations 2
 T goes from min(T) [0 0 0 0 0 0 0] -0.145757 to max(T) [0 0 0 0 0 0 0] 0.761522

ExecutionTime = 39.77 s  ClockTime = 685 s

Time = 5.5
Courant Number mean: 0.731603 max: 1.4221
DILUPBiCG:  Solving for T, Initial residual = 0.0296439, Final residual = 5.41733e-09, No Iterations 4
DILUPBiCG:  Solving for T, Initial residual = 0.00174153, Final residual = 4.59021e-10, No Iterations 4
DILUPBiCG:  Solving for T, Initial residual = 0.000187419, Final residual = 1.28929e-09, No Iterations 3
DILUPBiCG:  Solving for T, Initial residual = 2.89998e-05, Final residual = 6.90598e-09, No Iterations 2
 T goes from min(T) [0 0 0 0 0 0 0] -0.145336 to max(T) [0 0 0 0 0 0 0] 0.757016

ExecutionTime = 39.91 s  ClockTime = 687 s

Time = 5.52
Courant Number mean: 0.729926 max: 1.41822
DILUPBiCG:  Solving for T, Initial residual = 0.0298621, Final residual = 5.48397e-09, No Iterations 4
DILUPBiCG:  Solving for T, Initial residual = 0.00176814, Final residual = 4.8104e-10, No Iterations 4
DILUPBiCG:  Solving for T, Initial residual = 0.000189635, Final residual = 1.05749e-09, No Iterations 3
DILUPBiCG:  Solving for T, Initial residual = 2.93788e-05, Final residual = 8.94527e-09, No Iterations 2
 T goes from min(T) [0 0 0 0 0 0 0] -0.145495 to max(T) [0 0 0 0 0 0 0] 0.759916

ExecutionTime = 40.05 s  ClockTime = 689 s

Time = 5.54
Courant Number mean: 0.728772 max: 1.41417
DILUPBiCG:  Solving for T, Initial residual = 0.0300807, Final residual = 5.50812e-09, No Iterations 4
DILUPBiCG:  Solving for T, Initial residual = 0.00178692, Final residual = 5.08141e-10, No Iterations 4
DILUPBiCG:  Solving for T, Initial residual = 0.000192904, Final residual = 9.52972e-10, No Iterations 3
DILUPBiCG:  Solving for T, Initial residual = 2.98141e-05, Final residual = 3.01324e-10, No Iterations 3
 T goes from min(T) [0 0 0 0 0 0 0] -0.146236 to max(T) [0 0 0 0 0 0 0] 0.75982

ExecutionTime = 40.18 s  ClockTime = 691 s

Time = 5.56
Courant Number mean: 0.727041 max: 1.40999
DILUPBiCG:  Solving for T, Initial residual = 0.0303499, Final residual = 5.62054e-09, No Iterations 4
DILUPBiCG:  Solving for T, Initial residual = 0.00181611, Final residual = 4.79075e-10, No Iterations 4
DILUPBiCG:  Solving for T, Initial residual = 0.0001955, Final residual = 1.03209e-09, No Iterations 3
DILUPBiCG:  Solving for T, Initial residual = 3.02132e-05, Final residual = 9.292e-09, No Iterations 2
 T goes from min(T) [0 0 0 0 0 0 0] -0.145478 to max(T) [0 0 0 0 0 0 0] 0.756079

ExecutionTime = 40.32 s  ClockTime = 693 s

Time = 5.58
Courant Number mean: 0.725742 max: 1.40564
DILUPBiCG:  Solving for T, Initial residual = 0.030608, Final residual = 6.04221e-09, No Iterations 4
DILUPBiCG:  Solving for T, Initial residual = 0.00182998, Final residual = 5.70891e-10, No Iterations 4
DILUPBiCG:  Solving for T, Initial residual = 0.0001986, Final residual = 1.3456e-09, No Iterations 3
DILUPBiCG:  Solving for T, Initial residual = 3.06042e-05, Final residual = 1.61796e-10, No Iterations 3
 T goes from min(T) [0 0 0 0 0 0 0] -0.144916 to max(T) [0 0 0 0 0 0 0] 0.757239

ExecutionTime = 40.47 s  ClockTime = 695 s

Time = 5.6
Courant Number mean: 0.723961 max: 1.40116
DILUPBiCG:  Solving for T, Initial residual = 0.0307674, Final residual = 6.65104e-09, No Iterations 4
DILUPBiCG:  Solving for T, Initial residual = 0.00184628, Final residual = 8.31643e-10, No Iterations 4
DILUPBiCG:  Solving for T, Initial residual = 0.000200326, Final residual = 3.30248e-09, No Iterations 3
DILUPBiCG:  Solving for T, Initial residual = 3.08265e-05, Final residual = 1.17111e-10, No Iterations 3
 T goes from min(T) [0 0 0 0 0 0 0] -0.145443 to max(T) [0 0 0 0 0 0 0] 0.757392

ExecutionTime = 40.6 s  ClockTime = 697 s

Time = 5.62
Courant Number mean: 0.722518 max: 1.39652
DILUPBiCG:  Solving for T, Initial residual = 0.0310738, Final residual = 6.5536e-09, No Iterations 4
DILUPBiCG:  Solving for T, Initial residual = 0.00187694, Final residual = 1.76568e-09, No Iterations 4
DILUPBiCG:  Solving for T, Initial residual = 0.000202674, Final residual = 1.25303e-09, No Iterations 3
DILUPBiCG:  Solving for T, Initial residual = 3.10673e-05, Final residual = 9.43249e-09, No Iterations 2
 T goes from min(T) [0 0 0 0 0 0 0] -0.144143 to max(T) [0 0 0 0 0 0 0] 0.754341

ExecutionTime = 40.73 s  ClockTime = 699 s

Time = 5.64
Courant Number mean: 0.72069 max: 1.39174
DILUPBiCG:  Solving for T, Initial residual = 0.0312908, Final residual = 6.14819e-09, No Iterations 4
DILUPBiCG:  Solving for T, Initial residual = 0.00187983, Final residual = 1.43643e-09, No Iterations 4
DILUPBiCG:  Solving for T, Initial residual = 0.000204857, Final residual = 1.63087e-09, No Iterations 3
DILUPBiCG:  Solving for T, Initial residual = 3.13839e-05, Final residual = 1.12784e-10, No Iterations 3
 T goes from min(T) [0 0 0 0 0 0 0] -0.143486 to max(T) [0 0 0 0 0 0 0] 0.756145

ExecutionTime = 40.87 s  ClockTime = 701 s

Time = 5.66
Courant Number mean: 0.719101 max: 1.3868
DILUPBiCG:  Solving for T, Initial residual = 0.0315585, Final residual = 9.34124e-09, No Iterations 4
DILUPBiCG:  Solving for T, Initial residual = 0.00190376, Final residual = 8.19457e-09, No Iterations 3
DILUPBiCG:  Solving for T, Initial residual = 0.000206907, Final residual = 2.12522e-09, No Iterations 3
DILUPBiCG:  Solving for T, Initial residual = 3.15469e-05, Final residual = 1.0795e-10, No Iterations 3
 T goes from min(T) [0 0 0 0 0 0 0] -0.143541 to max(T) [0 0 0 0 0 0 0] 0.755157

ExecutionTime = 41 s  ClockTime = 703 s

Time = 5.68
Courant Number mean: 0.71724 max: 1.38173
DILUPBiCG:  Solving for T, Initial residual = 0.0318675, Final residual = 5.82422e-09, No Iterations 4
DILUPBiCG:  Solving for T, Initial residual = 0.00191948, Final residual = 8.04991e-09, No Iterations 3
DILUPBiCG:  Solving for T, Initial residual = 0.000208594, Final residual = 8.6621e-10, No Iterations 3
DILUPBiCG:  Solving for T, Initial residual = 3.15862e-05, Final residual = 3.8541e-09, No Iterations 2
 T goes from min(T) [0 0 0 0 0 0 0] -0.143263 to max(T) [0 0 0 0 0 0 0] 0.753641

ExecutionTime = 41.14 s  ClockTime = 705 s

Time = 5.7
Courant Number mean: 0.715506 max: 1.3765
DILUPBiCG:  Solving for T, Initial residual = 0.032116, Final residual = 5.57058e-09, No Iterations 4
DILUPBiCG:  Solving for T, Initial residual = 0.00193721, Final residual = 7.98601e-09, No Iterations 3
DILUPBiCG:  Solving for T, Initial residual = 0.000209504, Final residual = 8.43152e-10, No Iterations 3
DILUPBiCG:  Solving for T, Initial residual = 3.17465e-05, Final residual = 3.57402e-09, No Iterations 2
 T goes from min(T) [0 0 0 0 0 0 0] -0.142579 to max(T) [0 0 0 0 0 0 0] 0.753125

ExecutionTime = 41.27 s  ClockTime = 707 s

Time = 5.72
Courant Number mean: 0.713615 max: 1.37114
DILUPBiCG:  Solving for T, Initial residual = 0.0324636, Final residual = 1.39235e-11, No Iterations 6
DILUPBiCG:  Solving for T, Initial residual = 0.00195295, Final residual = 7.87432e-09, No Iterations 3
DILUPBiCG:  Solving for T, Initial residual = 0.000211355, Final residual = 8.29048e-10, No Iterations 3
DILUPBiCG:  Solving for T, Initial residual = 3.1925e-05, Final residual = 3.98437e-09, No Iterations 2
 T goes from min(T) [0 0 0 0 0 0 0] -0.141479 to max(T) [0 0 0 0 0 0 0] 0.74996

ExecutionTime = 41.41 s  ClockTime = 709 s

Time = 5.74
Courant Number mean: 0.711748 max: 1.36563
DILUPBiCG:  Solving for T, Initial residual = 0.0327057, Final residual = 4.92788e-09, No Iterations 4
DILUPBiCG:  Solving for T, Initial residual = 0.00196969, Final residual = 7.90903e-09, No Iterations 3
DILUPBiCG:  Solving for T, Initial residual = 0.000212769, Final residual = 8.67016e-10, No Iterations 3
DILUPBiCG:  Solving for T, Initial residual = 3.19158e-05, Final residual = 3.60898e-09, No Iterations 2
 T goes from min(T) [0 0 0 0 0 0 0] -0.142385 to max(T) [0 0 0 0 0 0 0] 0.748421

ExecutionTime = 41.57 s  ClockTime = 712 s

Time = 5.76
Courant Number mean: 0.709819 max: 1.35997
DILUPBiCG:  Solving for T, Initial residual = 0.0330122, Final residual = 4.58037e-09, No Iterations 4
DILUPBiCG:  Solving for T, Initial residual = 0.0019924, Final residual = 8.03755e-09, No Iterations 3
DILUPBiCG:  Solving for T, Initial residual = 0.000213375, Final residual = 1.00961e-09, No Iterations 3
DILUPBiCG:  Solving for T, Initial residual = 3.19234e-05, Final residual = 3.4288e-09, No Iterations 2
 T goes from min(T) [0 0 0 0 0 0 0] -0.139966 to max(T) [0 0 0 0 0 0 0] 0.748843

ExecutionTime = 41.7 s  ClockTime = 714 s

Time = 5.78
Courant Number mean: 0.707832 max: 1.35418
DILUPBiCG:  Solving for T, Initial residual = 0.0333588, Final residual = 4.50254e-09, No Iterations 4
DILUPBiCG:  Solving for T, Initial residual = 0.00199698, Final residual = 8.43498e-09, No Iterations 3
DILUPBiCG:  Solving for T, Initial residual = 0.000214537, Final residual = 8.96337e-10, No Iterations 3
DILUPBiCG:  Solving for T, Initial residual = 3.20913e-05, Final residual = 3.4252e-09, No Iterations 2
 T goes from min(T) [0 0 0 0 0 0 0] -0.140715 to max(T) [0 0 0 0 0 0 0] 0.748728

ExecutionTime = 41.84 s  ClockTime = 716 s

Time = 5.8
Courant Number mean: 0.705882 max: 1.34824
DILUPBiCG:  Solving for T, Initial residual = 0.0336476, Final residual = 4.41417e-09, No Iterations 4
DILUPBiCG:  Solving for T, Initial residual = 0.0020237, Final residual = 6.45639e-10, No Iterations 4
DILUPBiCG:  Solving for T, Initial residual = 0.000215675, Final residual = 9.72659e-10, No Iterations 3
DILUPBiCG:  Solving for T, Initial residual = 3.19596e-05, Final residual = 3.71295e-09, No Iterations 2
 T goes from min(T) [0 0 0 0 0 0 0] -0.139833 to max(T) [0 0 0 0 0 0 0] 0.74663

ExecutionTime = 41.98 s  ClockTime = 718 s

Time = 5.82
Courant Number mean: 0.703764 max: 1.34217
DILUPBiCG:  Solving for T, Initial residual = 0.0340164, Final residual = 4.26521e-09, No Iterations 4
DILUPBiCG:  Solving for T, Initial residual = 0.0020349, Final residual = 9.65078e-09, No Iterations 3
DILUPBiCG:  Solving for T, Initial residual = 0.000216042, Final residual = 1.22291e-09, No Iterations 3
DILUPBiCG:  Solving for T, Initial residual = 3.19255e-05, Final residual = 3.84836e-09, No Iterations 2
 T goes from min(T) [0 0 0 0 0 0 0] -0.13772 to max(T) [0 0 0 0 0 0 0] 0.74326

ExecutionTime = 42.13 s  ClockTime = 720 s

Time = 5.84
Courant Number mean: 0.701779 max: 1.33596
DILUPBiCG:  Solving for T, Initial residual = 0.0343478, Final residual = 4.15428e-09, No Iterations 4
DILUPBiCG:  Solving for T, Initial residual = 0.00204948, Final residual = 8.49981e-09, No Iterations 3
DILUPBiCG:  Solving for T, Initial residual = 0.000216845, Final residual = 1.21779e-09, No Iterations 3
DILUPBiCG:  Solving for T, Initial residual = 3.19504e-05, Final residual = 3.66427e-09, No Iterations 2
 T goes from min(T) [0 0 0 0 0 0 0] -0.139043 to max(T) [0 0 0 0 0 0 0] 0.745428

ExecutionTime = 42.26 s  ClockTime = 722 s

Time = 5.86
Courant Number mean: 0.699543 max: 1.32961
DILUPBiCG:  Solving for T, Initial residual = 0.0346624, Final residual = 4.00636e-09, No Iterations 4
DILUPBiCG:  Solving for T, Initial residual = 0.00207057, Final residual = 8.0694e-09, No Iterations 3
DILUPBiCG:  Solving for T, Initial residual = 0.000217672, Final residual = 1.04019e-09, No Iterations 3
DILUPBiCG:  Solving for T, Initial residual = 3.18105e-05, Final residual = 3.71748e-09, No Iterations 2
 T goes from min(T) [0 0 0 0 0 0 0] -0.137257 to max(T) [0 0 0 0 0 0 0] 0.745438

ExecutionTime = 42.4 s  ClockTime = 724 s

Time = 5.88
Courant Number mean: 0.69752 max: 1.32312
DILUPBiCG:  Solving for T, Initial residual = 0.0349687, Final residual = 3.99649e-09, No Iterations 4
DILUPBiCG:  Solving for T, Initial residual = 0.00207875, Final residual = 7.78006e-09, No Iterations 3
DILUPBiCG:  Solving for T, Initial residual = 0.000218335, Final residual = 8.54353e-10, No Iterations 3
DILUPBiCG:  Solving for T, Initial residual = 3.18711e-05, Final residual = 4.717e-09, No Iterations 2
 T goes from min(T) [0 0 0 0 0 0 0] -0.137062 to max(T) [0 0 0 0 0 0 0] 0.743731

ExecutionTime = 42.53 s  ClockTime = 726 s

Time = 5.9
Courant Number mean: 0.69518 max: 1.3165
DILUPBiCG:  Solving for T, Initial residual = 0.0353162, Final residual = 4.01211e-09, No Iterations 4
DILUPBiCG:  Solving for T, Initial residual = 0.00209499, Final residual = 7.59325e-09, No Iterations 3
DILUPBiCG:  Solving for T, Initial residual = 0.000218849, Final residual = 1.07356e-09, No Iterations 3
DILUPBiCG:  Solving for T, Initial residual = 3.17703e-05, Final residual = 4.97441e-09, No Iterations 2
 T goes from min(T) [0 0 0 0 0 0 0] -0.136836 to max(T) [0 0 0 0 0 0 0] 0.741911

ExecutionTime = 42.66 s  ClockTime = 728 s

Time = 5.92
Courant Number mean: 0.693131 max: 1.30974
DILUPBiCG:  Solving for T, Initial residual = 0.0355835, Final residual = 3.9779e-09, No Iterations 4
DILUPBiCG:  Solving for T, Initial residual = 0.00210991, Final residual = 9.02241e-09, No Iterations 3
DILUPBiCG:  Solving for T, Initial residual = 0.000219197, Final residual = 1.3711e-09, No Iterations 3
DILUPBiCG:  Solving for T, Initial residual = 3.15957e-05, Final residual = 7.83221e-10, No Iterations 3
 T goes from min(T) [0 0 0 0 0 0 0] -0.134516 to max(T) [0 0 0 0 0 0 0] 0.738637

ExecutionTime = 42.79 s  ClockTime = 730 s

Time = 5.94
Courant Number mean: 0.690674 max: 1.30286
DILUPBiCG:  Solving for T, Initial residual = 0.0358955, Final residual = 4.34638e-09, No Iterations 4
DILUPBiCG:  Solving for T, Initial residual = 0.00211994, Final residual = 3.63913e-10, No Iterations 4
DILUPBiCG:  Solving for T, Initial residual = 0.000220324, Final residual = 1.1603e-09, No Iterations 3
DILUPBiCG:  Solving for T, Initial residual = 3.16994e-05, Final residual = 3.65547e-09, No Iterations 2
 T goes from min(T) [0 0 0 0 0 0 0] -0.135462 to max(T) [0 0 0 0 0 0 0] 0.740534

ExecutionTime = 42.92 s  ClockTime = 732 s

Time = 5.96
Courant Number mean: 0.688616 max: 1.29583
DILUPBiCG:  Solving for T, Initial residual = 0.0362588, Final residual = 8.7736e-09, No Iterations 4
DILUPBiCG:  Solving for T, Initial residual = 0.00213492, Final residual = 2.65452e-10, No Iterations 4
DILUPBiCG:  Solving for T, Initial residual = 0.000220364, Final residual = 1.5512e-09, No Iterations 3
DILUPBiCG:  Solving for T, Initial residual = 3.15863e-05, Final residual = 3.44665e-09, No Iterations 2
 T goes from min(T) [0 0 0 0 0 0 0] -0.132465 to max(T) [0 0 0 0 0 0 0] 0.741835

ExecutionTime = 43.06 s  ClockTime = 733 s

Time = 5.98
Courant Number mean: 0.686056 max: 1.28869
DILUPBiCG:  Solving for T, Initial residual = 0.0365255, Final residual = 4.87726e-09, No Iterations 4
DILUPBiCG:  Solving for T, Initial residual = 0.00214055, Final residual = 2.73845e-10, No Iterations 4
DILUPBiCG:  Solving for T, Initial residual = 0.000220786, Final residual = 1.69113e-09, No Iterations 3
DILUPBiCG:  Solving for T, Initial residual = 3.1421e-05, Final residual = 3.54301e-09, No Iterations 2
 T goes from min(T) [0 0 0 0 0 0 0] -0.134063 to max(T) [0 0 0 0 0 0 0] 0.741296

ExecutionTime = 43.2 s  ClockTime = 736 s

Time = 6
Courant Number mean: 0.683983 max: 1.2814
DILUPBiCG:  Solving for T, Initial residual = 0.0368882, Final residual = 6.36733e-09, No Iterations 4
DILUPBiCG:  Solving for T, Initial residual = 0.00215121, Final residual = 2.85383e-10, No Iterations 4
DILUPBiCG:  Solving for T, Initial residual = 0.000221198, Final residual = 1.35308e-09, No Iterations 3
DILUPBiCG:  Solving for T, Initial residual = 3.13605e-05, Final residual = 6.2204e-09, No Iterations 2
 T goes from min(T) [0 0 0 0 0 0 0] -0.131191 to max(T) [0 0 0 0 0 0 0] 0.739743

ExecutionTime = 43.34 s  ClockTime = 737 s

End

