/*---------------------------------------------------------------------------*\
| =========                 |                                                 |
| \\      /  F ield         | OpenFOAM: The Open Source CFD Toolbox           |
|  \\    /   O peration     | Version:  dev                                   |
|   \\  /    A nd           | Web:      www.OpenFOAM.org                      |
|    \\/     M anipulation  |                                                 |
\*---------------------------------------------------------------------------*/
Build  : dev-90f39e0d894d
Exec   : scalarDeformationWithGhosts explicit -case orthogonal/240x120/c1_explicit
Date   : May 23 2017
Time   : 20:31:14
Host   : "sws02hw.private.rdg.ac.uk"
PID    : 22906
Case   : orthogonal/240x120/c1_explicit
nProcs : 1
sigFpe : Enabling floating point exception trapping (FOAM_SIGFPE).
fileModificationChecking : Monitoring run-time modified files using timeStampMaster (fileModificationSkew 10)
allowSystemOperations : Allowing user-supplied system call operations

// * * * * * * * * * * * * * * * * * * * * * * * * * * * * * * * * * * * * * //
Create time

Create mesh for time = 0

Reading field T

Reading fields phi (compulsory), U and Uf (optional)

Calculating owner stencils
Calculating neighbour stencils

Calculating scalar transport

Courant Number mean: 0.374536 max: 0.735969
Time = 0.005
Courant Number mean: 0.374526 max: 0.735995
diagonal:  Solving for T, Initial residual = 0, Final residual = 0, No Iterations 0
diagonal:  Solving for T, Initial residual = 0, Final residual = 0, No Iterations 0
diagonal:  Solving for T, Initial residual = 0, Final residual = 0, No Iterations 0
diagonal:  Solving for T, Initial residual = 0, Final residual = 0, No Iterations 0
 T goes from min(T) [0 0 0 0 0 0 0] 8.59946e-21 to max(T) [0 0 0 0 0 0 0] 0.953917

ExecutionTime = 7.82 s  ClockTime = 136 s

Time = 0.01
Courant Number mean: 0.374494 max: 0.735965
diagonal:  Solving for T, Initial residual = 0, Final residual = 0, No Iterations 0
diagonal:  Solving for T, Initial residual = 0, Final residual = 0, No Iterations 0
diagonal:  Solving for T, Initial residual = 0, Final residual = 0, No Iterations 0
diagonal:  Solving for T, Initial residual = 0, Final residual = 0, No Iterations 0
 T goes from min(T) [0 0 0 0 0 0 0] 8.31649e-21 to max(T) [0 0 0 0 0 0 0] 0.953879

ExecutionTime = 8.29 s  ClockTime = 145 s

Time = 0.015
Courant Number mean: 0.374515 max: 0.735975
diagonal:  Solving for T, Initial residual = 0, Final residual = 0, No Iterations 0
diagonal:  Solving for T, Initial residual = 0, Final residual = 0, No Iterations 0
diagonal:  Solving for T, Initial residual = 0, Final residual = 0, No Iterations 0
diagonal:  Solving for T, Initial residual = 0, Final residual = 0, No Iterations 0
 T goes from min(T) [0 0 0 0 0 0 0] 8.54294e-21 to max(T) [0 0 0 0 0 0 0] 0.953282

ExecutionTime = 8.84 s  ClockTime = 159 s

Time = 0.02
Courant Number mean: 0.374521 max: 0.735938
diagonal:  Solving for T, Initial residual = 0, Final residual = 0, No Iterations 0
diagonal:  Solving for T, Initial residual = 0, Final residual = 0, No Iterations 0
diagonal:  Solving for T, Initial residual = 0, Final residual = 0, No Iterations 0
diagonal:  Solving for T, Initial residual = 0, Final residual = 0, No Iterations 0
 T goes from min(T) [0 0 0 0 0 0 0] 9.25151e-21 to max(T) [0 0 0 0 0 0 0] 0.953648

ExecutionTime = 9.35 s  ClockTime = 170 s

Time = 0.025
Courant Number mean: 0.374508 max: 0.735935
diagonal:  Solving for T, Initial residual = 0, Final residual = 0, No Iterations 0
diagonal:  Solving for T, Initial residual = 0, Final residual = 0, No Iterations 0
diagonal:  Solving for T, Initial residual = 0, Final residual = 0, No Iterations 0
diagonal:  Solving for T, Initial residual = 0, Final residual = 0, No Iterations 0
 T goes from min(T) [0 0 0 0 0 0 0] 8.90305e-21 to max(T) [0 0 0 0 0 0 0] 0.953898

ExecutionTime = 9.89 s  ClockTime = 181 s

Time = 0.03
Courant Number mean: 0.374471 max: 0.735894
diagonal:  Solving for T, Initial residual = 0, Final residual = 0, No Iterations 0
diagonal:  Solving for T, Initial residual = 0, Final residual = 0, No Iterations 0
diagonal:  Solving for T, Initial residual = 0, Final residual = 0, No Iterations 0
diagonal:  Solving for T, Initial residual = 0, Final residual = 0, No Iterations 0
 T goes from min(T) [0 0 0 0 0 0 0] 8.50611e-21 to max(T) [0 0 0 0 0 0 0] 0.953247

ExecutionTime = 10.4 s  ClockTime = 192 s

Time = 0.035
Courant Number mean: 0.374476 max: 0.735876
diagonal:  Solving for T, Initial residual = 0, Final residual = 0, No Iterations 0
diagonal:  Solving for T, Initial residual = 0, Final residual = 0, No Iterations 0
diagonal:  Solving for T, Initial residual = 0, Final residual = 0, No Iterations 0
diagonal:  Solving for T, Initial residual = 0, Final residual = 0, No Iterations 0
 T goes from min(T) [0 0 0 0 0 0 0] 8.59199e-21 to max(T) [0 0 0 0 0 0 0] 0.953926

ExecutionTime = 10.9 s  ClockTime = 203 s

Time = 0.04
Courant Number mean: 0.374478 max: 0.735828
diagonal:  Solving for T, Initial residual = 0, Final residual = 0, No Iterations 0
diagonal:  Solving for T, Initial residual = 0, Final residual = 0, No Iterations 0
diagonal:  Solving for T, Initial residual = 0, Final residual = 0, No Iterations 0
diagonal:  Solving for T, Initial residual = 0, Final residual = 0, No Iterations 0
 T goes from min(T) [0 0 0 0 0 0 0] 9.14682e-21 to max(T) [0 0 0 0 0 0 0] 0.953782

ExecutionTime = 11.46 s  ClockTime = 214 s

Time = 0.045
Courant Number mean: 0.37446 max: 0.735796
diagonal:  Solving for T, Initial residual = 0, Final residual = 0, No Iterations 0
diagonal:  Solving for T, Initial residual = 0, Final residual = 0, No Iterations 0
diagonal:  Solving for T, Initial residual = 0, Final residual = 0, No Iterations 0
diagonal:  Solving for T, Initial residual = 0, Final residual = 0, No Iterations 0
 T goes from min(T) [0 0 0 0 0 0 0] 9.03195e-21 to max(T) [0 0 0 0 0 0 0] 0.953249

ExecutionTime = 11.94 s  ClockTime = 225 s

Time = 0.05
Courant Number mean: 0.37442 max: 0.735743
diagonal:  Solving for T, Initial residual = 0, Final residual = 0, No Iterations 0
diagonal:  Solving for T, Initial residual = 0, Final residual = 0, No Iterations 0
diagonal:  Solving for T, Initial residual = 0, Final residual = 0, No Iterations 0
diagonal:  Solving for T, Initial residual = 0, Final residual = 0, No Iterations 0
 T goes from min(T) [0 0 0 0 0 0 0] 8.56911e-21 to max(T) [0 0 0 0 0 0 0] 0.953848

ExecutionTime = 12.43 s  ClockTime = 235 s

Time = 0.055
Courant Number mean: 0.374407 max: 0.735696
diagonal:  Solving for T, Initial residual = 0, Final residual = 0, No Iterations 0
diagonal:  Solving for T, Initial residual = 0, Final residual = 0, No Iterations 0
diagonal:  Solving for T, Initial residual = 0, Final residual = 0, No Iterations 0
diagonal:  Solving for T, Initial residual = 0, Final residual = 0, No Iterations 0
 T goes from min(T) [0 0 0 0 0 0 0] 8.56627e-21 to max(T) [0 0 0 0 0 0 0] 0.95405

ExecutionTime = 12.92 s  ClockTime = 245 s

Time = 0.06
Courant Number mean: 0.374406 max: 0.735638
diagonal:  Solving for T, Initial residual = 0, Final residual = 0, No Iterations 0
diagonal:  Solving for T, Initial residual = 0, Final residual = 0, No Iterations 0
diagonal:  Solving for T, Initial residual = 0, Final residual = 0, No Iterations 0
diagonal:  Solving for T, Initial residual = 0, Final residual = 0, No Iterations 0
 T goes from min(T) [0 0 0 0 0 0 0] 9.01556e-21 to max(T) [0 0 0 0 0 0 0] 0.953311

ExecutionTime = 13.41 s  ClockTime = 255 s

Time = 0.065
Courant Number mean: 0.374383 max: 0.735576
diagonal:  Solving for T, Initial residual = 0, Final residual = 0, No Iterations 0
diagonal:  Solving for T, Initial residual = 0, Final residual = 0, No Iterations 0
diagonal:  Solving for T, Initial residual = 0, Final residual = 0, No Iterations 0
diagonal:  Solving for T, Initial residual = 0, Final residual = 0, No Iterations 0
 T goes from min(T) [0 0 0 0 0 0 0] 9.12815e-21 to max(T) [0 0 0 0 0 0 0] 0.95348

ExecutionTime = 13.89 s  ClockTime = 264 s

Time = 0.07
Courant Number mean: 0.37434 max: 0.735513
diagonal:  Solving for T, Initial residual = 0, Final residual = 0, No Iterations 0
diagonal:  Solving for T, Initial residual = 0, Final residual = 0, No Iterations 0
diagonal:  Solving for T, Initial residual = 0, Final residual = 0, No Iterations 0
diagonal:  Solving for T, Initial residual = 0, Final residual = 0, No Iterations 0
 T goes from min(T) [0 0 0 0 0 0 0] 8.60358e-21 to max(T) [0 0 0 0 0 0 0] 0.953987

ExecutionTime = 14.36 s  ClockTime = 273 s

Time = 0.075
Courant Number mean: 0.374309 max: 0.735437
diagonal:  Solving for T, Initial residual = 0, Final residual = 0, No Iterations 0
diagonal:  Solving for T, Initial residual = 0, Final residual = 0, No Iterations 0
diagonal:  Solving for T, Initial residual = 0, Final residual = 0, No Iterations 0
diagonal:  Solving for T, Initial residual = 0, Final residual = 0, No Iterations 0
 T goes from min(T) [0 0 0 0 0 0 0] 8.52434e-21 to max(T) [0 0 0 0 0 0 0] 0.95357

ExecutionTime = 14.87 s  ClockTime = 283 s

Time = 0.08
Courant Number mean: 0.374304 max: 0.735368
diagonal:  Solving for T, Initial residual = 0, Final residual = 0, No Iterations 0
diagonal:  Solving for T, Initial residual = 0, Final residual = 0, No Iterations 0
diagonal:  Solving for T, Initial residual = 0, Final residual = 0, No Iterations 0
diagonal:  Solving for T, Initial residual = 0, Final residual = 0, No Iterations 0
 T goes from min(T) [0 0 0 0 0 0 0] 8.88457e-21 to max(T) [0 0 0 0 0 0 0] 0.953585

ExecutionTime = 15.34 s  ClockTime = 292 s

Time = 0.085
Courant Number mean: 0.374278 max: 0.735277
diagonal:  Solving for T, Initial residual = 0, Final residual = 0, No Iterations 0
diagonal:  Solving for T, Initial residual = 0, Final residual = 0, No Iterations 0
diagonal:  Solving for T, Initial residual = 0, Final residual = 0, No Iterations 0
diagonal:  Solving for T, Initial residual = 0, Final residual = 0, No Iterations 0
 T goes from min(T) [0 0 0 0 0 0 0] 9.21535e-21 to max(T) [0 0 0 0 0 0 0] 0.953662

ExecutionTime = 15.82 s  ClockTime = 301 s

Time = 0.09
Courant Number mean: 0.374231 max: 0.735203
diagonal:  Solving for T, Initial residual = 0, Final residual = 0, No Iterations 0
diagonal:  Solving for T, Initial residual = 0, Final residual = 0, No Iterations 0
diagonal:  Solving for T, Initial residual = 0, Final residual = 0, No Iterations 0
diagonal:  Solving for T, Initial residual = 0, Final residual = 0, No Iterations 0
 T goes from min(T) [0 0 0 0 0 0 0] 8.63124e-21 to max(T) [0 0 0 0 0 0 0] 0.953531

ExecutionTime = 16.3 s  ClockTime = 310 s

Time = 0.095
Courant Number mean: 0.374182 max: 0.735099
diagonal:  Solving for T, Initial residual = 0, Final residual = 0, No Iterations 0
diagonal:  Solving for T, Initial residual = 0, Final residual = 0, No Iterations 0
diagonal:  Solving for T, Initial residual = 0, Final residual = 0, No Iterations 0
diagonal:  Solving for T, Initial residual = 0, Final residual = 0, No Iterations 0
 T goes from min(T) [0 0 0 0 0 0 0] 8.48195e-21 to max(T) [0 0 0 0 0 0 0] 0.953631

ExecutionTime = 16.79 s  ClockTime = 319 s

Time = 0.1
Courant Number mean: 0.374173 max: 0.735018
diagonal:  Solving for T, Initial residual = 0, Final residual = 0, No Iterations 0
diagonal:  Solving for T, Initial residual = 0, Final residual = 0, No Iterations 0
diagonal:  Solving for T, Initial residual = 0, Final residual = 0, No Iterations 0
diagonal:  Solving for T, Initial residual = 0, Final residual = 0, No Iterations 0
 T goes from min(T) [0 0 0 0 0 0 0] 8.76224e-21 to max(T) [0 0 0 0 0 0 0] 0.95391

ExecutionTime = 17.28 s  ClockTime = 328 s

Time = 0.105
Courant Number mean: 0.374143 max: 0.734899
diagonal:  Solving for T, Initial residual = 0, Final residual = 0, No Iterations 0
diagonal:  Solving for T, Initial residual = 0, Final residual = 0, No Iterations 0
diagonal:  Solving for T, Initial residual = 0, Final residual = 0, No Iterations 0
diagonal:  Solving for T, Initial residual = 0, Final residual = 0, No Iterations 0
 T goes from min(T) [0 0 0 0 0 0 0] 9.30293e-21 to max(T) [0 0 0 0 0 0 0] 0.953267

ExecutionTime = 17.75 s  ClockTime = 337 s

Time = 0.11
Courant Number mean: 0.374092 max: 0.734813
diagonal:  Solving for T, Initial residual = 0, Final residual = 0, No Iterations 0
diagonal:  Solving for T, Initial residual = 0, Final residual = 0, No Iterations 0
diagonal:  Solving for T, Initial residual = 0, Final residual = 0, No Iterations 0
diagonal:  Solving for T, Initial residual = 0, Final residual = 0, No Iterations 0
 T goes from min(T) [0 0 0 0 0 0 0] 8.66096e-21 to max(T) [0 0 0 0 0 0 0] 0.953748

ExecutionTime = 18.26 s  ClockTime = 347 s

Time = 0.115
Courant Number mean: 0.374027 max: 0.73468
diagonal:  Solving for T, Initial residual = 0, Final residual = 0, No Iterations 0
diagonal:  Solving for T, Initial residual = 0, Final residual = 0, No Iterations 0
diagonal:  Solving for T, Initial residual = 0, Final residual = 0, No Iterations 0
diagonal:  Solving for T, Initial residual = 0, Final residual = 0, No Iterations 0
 T goes from min(T) [0 0 0 0 0 0 0] 8.44582e-21 to max(T) [0 0 0 0 0 0 0] 0.953921

ExecutionTime = 18.75 s  ClockTime = 356 s

Time = 0.12
Courant Number mean: 0.374014 max: 0.734589
diagonal:  Solving for T, Initial residual = 0, Final residual = 0, No Iterations 0
diagonal:  Solving for T, Initial residual = 0, Final residual = 0, No Iterations 0
diagonal:  Solving for T, Initial residual = 0, Final residual = 0, No Iterations 0
diagonal:  Solving for T, Initial residual = 0, Final residual = 0, No Iterations 0
 T goes from min(T) [0 0 0 0 0 0 0] 8.65228e-21 to max(T) [0 0 0 0 0 0 0] 0.953658

ExecutionTime = 19.22 s  ClockTime = 365 s

Time = 0.125
Courant Number mean: 0.37398 max: 0.73444
diagonal:  Solving for T, Initial residual = 0, Final residual = 0, No Iterations 0
diagonal:  Solving for T, Initial residual = 0, Final residual = 0, No Iterations 0
diagonal:  Solving for T, Initial residual = 0, Final residual = 0, No Iterations 0
diagonal:  Solving for T, Initial residual = 0, Final residual = 0, No Iterations 0
 T goes from min(T) [0 0 0 0 0 0 0] 9.27955e-21 to max(T) [0 0 0 0 0 0 0] 0.953694

ExecutionTime = 19.71 s  ClockTime = 375 s

Time = 0.13
Courant Number mean: 0.373925 max: 0.734344
diagonal:  Solving for T, Initial residual = 0, Final residual = 0, No Iterations 0
diagonal:  Solving for T, Initial residual = 0, Final residual = 0, No Iterations 0
diagonal:  Solving for T, Initial residual = 0, Final residual = 0, No Iterations 0
diagonal:  Solving for T, Initial residual = 0, Final residual = 0, No Iterations 0
 T goes from min(T) [0 0 0 0 0 0 0] 8.69681e-21 to max(T) [0 0 0 0 0 0 0] 0.954104

ExecutionTime = 20.18 s  ClockTime = 383 s

Time = 0.135
Courant Number mean: 0.373849 max: 0.734191
diagonal:  Solving for T, Initial residual = 0, Final residual = 0, No Iterations 0
diagonal:  Solving for T, Initial residual = 0, Final residual = 0, No Iterations 0
diagonal:  Solving for T, Initial residual = 0, Final residual = 0, No Iterations 0
diagonal:  Solving for T, Initial residual = 0, Final residual = 0, No Iterations 0
 T goes from min(T) [0 0 0 0 0 0 0] 8.41903e-21 to max(T) [0 0 0 0 0 0 0] 0.953716

ExecutionTime = 20.68 s  ClockTime = 391 s

Time = 0.14
Courant Number mean: 0.373826 max: 0.73408
diagonal:  Solving for T, Initial residual = 0, Final residual = 0, No Iterations 0
diagonal:  Solving for T, Initial residual = 0, Final residual = 0, No Iterations 0
diagonal:  Solving for T, Initial residual = 0, Final residual = 0, No Iterations 0
diagonal:  Solving for T, Initial residual = 0, Final residual = 0, No Iterations 0
 T goes from min(T) [0 0 0 0 0 0 0] 8.55621e-21 to max(T) [0 0 0 0 0 0 0] 0.953514

ExecutionTime = 21.16 s  ClockTime = 398 s

Time = 0.145
Courant Number mean: 0.373788 max: 0.733921
diagonal:  Solving for T, Initial residual = 0, Final residual = 0, No Iterations 0
diagonal:  Solving for T, Initial residual = 0, Final residual = 0, No Iterations 0
diagonal:  Solving for T, Initial residual = 0, Final residual = 0, No Iterations 0
diagonal:  Solving for T, Initial residual = 0, Final residual = 0, No Iterations 0
 T goes from min(T) [0 0 0 0 0 0 0] 9.10758e-21 to max(T) [0 0 0 0 0 0 0] 0.954141

ExecutionTime = 21.63 s  ClockTime = 405 s

Time = 0.15
Courant Number mean: 0.373729 max: 0.733795
diagonal:  Solving for T, Initial residual = 0, Final residual = 0, No Iterations 0
diagonal:  Solving for T, Initial residual = 0, Final residual = 0, No Iterations 0
diagonal:  Solving for T, Initial residual = 0, Final residual = 0, No Iterations 0
diagonal:  Solving for T, Initial residual = 0, Final residual = 0, No Iterations 0
 T goes from min(T) [0 0 0 0 0 0 0] 8.74085e-21 to max(T) [0 0 0 0 0 0 0] 0.953987

ExecutionTime = 22.13 s  ClockTime = 413 s

Time = 0.155
Courant Number mean: 0.37365 max: 0.733632
diagonal:  Solving for T, Initial residual = 0, Final residual = 0, No Iterations 0
diagonal:  Solving for T, Initial residual = 0, Final residual = 0, No Iterations 0
diagonal:  Solving for T, Initial residual = 0, Final residual = 0, No Iterations 0
diagonal:  Solving for T, Initial residual = 0, Final residual = 0, No Iterations 0
 T goes from min(T) [0 0 0 0 0 0 0] 8.40304e-21 to max(T) [0 0 0 0 0 0 0] 0.953245

ExecutionTime = 22.63 s  ClockTime = 420 s

Time = 0.16
Courant Number mean: 0.373609 max: 0.733492
diagonal:  Solving for T, Initial residual = 0, Final residual = 0, No Iterations 0
diagonal:  Solving for T, Initial residual = 0, Final residual = 0, No Iterations 0
diagonal:  Solving for T, Initial residual = 0, Final residual = 0, No Iterations 0
diagonal:  Solving for T, Initial residual = 0, Final residual = 0, No Iterations 0
 T goes from min(T) [0 0 0 0 0 0 0] 8.47459e-21 to max(T) [0 0 0 0 0 0 0] 0.954072

ExecutionTime = 23.15 s  ClockTime = 428 s

Time = 0.165
Courant Number mean: 0.373567 max: 0.733322
diagonal:  Solving for T, Initial residual = 0, Final residual = 0, No Iterations 0
diagonal:  Solving for T, Initial residual = 0, Final residual = 0, No Iterations 0
diagonal:  Solving for T, Initial residual = 0, Final residual = 0, No Iterations 0
diagonal:  Solving for T, Initial residual = 0, Final residual = 0, No Iterations 0
 T goes from min(T) [0 0 0 0 0 0 0] 8.9545e-21 to max(T) [0 0 0 0 0 0 0] 0.954137

ExecutionTime = 23.62 s  ClockTime = 435 s

Time = 0.17
Courant Number mean: 0.373504 max: 0.733167
diagonal:  Solving for T, Initial residual = 0, Final residual = 0, No Iterations 0
diagonal:  Solving for T, Initial residual = 0, Final residual = 0, No Iterations 0
diagonal:  Solving for T, Initial residual = 0, Final residual = 0, No Iterations 0
diagonal:  Solving for T, Initial residual = 0, Final residual = 0, No Iterations 0
 T goes from min(T) [0 0 0 0 0 0 0] 8.79413e-21 to max(T) [0 0 0 0 0 0 0] 0.953475

ExecutionTime = 24.13 s  ClockTime = 443 s

Time = 0.175
Courant Number mean: 0.373421 max: 0.732993
diagonal:  Solving for T, Initial residual = 0, Final residual = 0, No Iterations 0
diagonal:  Solving for T, Initial residual = 0, Final residual = 0, No Iterations 0
diagonal:  Solving for T, Initial residual = 0, Final residual = 0, No Iterations 0
diagonal:  Solving for T, Initial residual = 0, Final residual = 0, No Iterations 0
 T goes from min(T) [0 0 0 0 0 0 0] 8.39847e-21 to max(T) [0 0 0 0 0 0 0] 0.953931

ExecutionTime = 24.63 s  ClockTime = 450 s

Time = 0.18
Courant Number mean: 0.373363 max: 0.732824
diagonal:  Solving for T, Initial residual = 0, Final residual = 0, No Iterations 0
diagonal:  Solving for T, Initial residual = 0, Final residual = 0, No Iterations 0
diagonal:  Solving for T, Initial residual = 0, Final residual = 0, No Iterations 0
diagonal:  Solving for T, Initial residual = 0, Final residual = 0, No Iterations 0
 T goes from min(T) [0 0 0 0 0 0 0] 8.40744e-21 to max(T) [0 0 0 0 0 0 0] 0.954202

ExecutionTime = 25.16 s  ClockTime = 458 s

Time = 0.185
Courant Number mean: 0.373317 max: 0.732643
diagonal:  Solving for T, Initial residual = 0, Final residual = 0, No Iterations 0
diagonal:  Solving for T, Initial residual = 0, Final residual = 0, No Iterations 0
diagonal:  Solving for T, Initial residual = 0, Final residual = 0, No Iterations 0
diagonal:  Solving for T, Initial residual = 0, Final residual = 0, No Iterations 0
 T goes from min(T) [0 0 0 0 0 0 0] 8.8196e-21 to max(T) [0 0 0 0 0 0 0] 0.953763

ExecutionTime = 25.64 s  ClockTime = 465 s

Time = 0.19
Courant Number mean: 0.37325 max: 0.73246
diagonal:  Solving for T, Initial residual = 0, Final residual = 0, No Iterations 0
diagonal:  Solving for T, Initial residual = 0, Final residual = 0, No Iterations 0
diagonal:  Solving for T, Initial residual = 0, Final residual = 0, No Iterations 0
diagonal:  Solving for T, Initial residual = 0, Final residual = 0, No Iterations 0
 T goes from min(T) [0 0 0 0 0 0 0] 8.8571e-21 to max(T) [0 0 0 0 0 0 0] 0.953738

ExecutionTime = 26.12 s  ClockTime = 473 s

Time = 0.195
Courant Number mean: 0.373164 max: 0.732274
diagonal:  Solving for T, Initial residual = 0, Final residual = 0, No Iterations 0
diagonal:  Solving for T, Initial residual = 0, Final residual = 0, No Iterations 0
diagonal:  Solving for T, Initial residual = 0, Final residual = 0, No Iterations 0
diagonal:  Solving for T, Initial residual = 0, Final residual = 0, No Iterations 0
 T goes from min(T) [0 0 0 0 0 0 0] 8.40551e-21 to max(T) [0 0 0 0 0 0 0] 0.954206

ExecutionTime = 26.61 s  ClockTime = 480 s

Time = 0.2
Courant Number mean: 0.373089 max: 0.732077
diagonal:  Solving for T, Initial residual = 0, Final residual = 0, No Iterations 0
diagonal:  Solving for T, Initial residual = 0, Final residual = 0, No Iterations 0
diagonal:  Solving for T, Initial residual = 0, Final residual = 0, No Iterations 0
diagonal:  Solving for T, Initial residual = 0, Final residual = 0, No Iterations 0
 T goes from min(T) [0 0 0 0 0 0 0] 8.35449e-21 to max(T) [0 0 0 0 0 0 0] 0.953981

ExecutionTime = 27.1 s  ClockTime = 487 s

Time = 0.205
Courant Number mean: 0.373039 max: 0.731885
diagonal:  Solving for T, Initial residual = 0, Final residual = 0, No Iterations 0
diagonal:  Solving for T, Initial residual = 0, Final residual = 0, No Iterations 0
diagonal:  Solving for T, Initial residual = 0, Final residual = 0, No Iterations 0
diagonal:  Solving for T, Initial residual = 0, Final residual = 0, No Iterations 0
 T goes from min(T) [0 0 0 0 0 0 0] 8.70209e-21 to max(T) [0 0 0 0 0 0 0] 0.953497

ExecutionTime = 27.6 s  ClockTime = 495 s

Time = 0.21
Courant Number mean: 0.372969 max: 0.731673
diagonal:  Solving for T, Initial residual = 0, Final residual = 0, No Iterations 0
diagonal:  Solving for T, Initial residual = 0, Final residual = 0, No Iterations 0
diagonal:  Solving for T, Initial residual = 0, Final residual = 0, No Iterations 0
diagonal:  Solving for T, Initial residual = 0, Final residual = 0, No Iterations 0
 T goes from min(T) [0 0 0 0 0 0 0] 8.92994e-21 to max(T) [0 0 0 0 0 0 0] 0.954157

ExecutionTime = 28.11 s  ClockTime = 502 s

Time = 0.215
Courant Number mean: 0.372878 max: 0.731477
diagonal:  Solving for T, Initial residual = 0, Final residual = 0, No Iterations 0
diagonal:  Solving for T, Initial residual = 0, Final residual = 0, No Iterations 0
diagonal:  Solving for T, Initial residual = 0, Final residual = 0, No Iterations 0
diagonal:  Solving for T, Initial residual = 0, Final residual = 0, No Iterations 0
 T goes from min(T) [0 0 0 0 0 0 0] 8.42406e-21 to max(T) [0 0 0 0 0 0 0] 0.954141

ExecutionTime = 28.6 s  ClockTime = 510 s

Time = 0.22
Courant Number mean: 0.372786 max: 0.731251
diagonal:  Solving for T, Initial residual = 0, Final residual = 0, No Iterations 0
diagonal:  Solving for T, Initial residual = 0, Final residual = 0, No Iterations 0
diagonal:  Solving for T, Initial residual = 0, Final residual = 0, No Iterations 0
diagonal:  Solving for T, Initial residual = 0, Final residual = 0, No Iterations 0
 T goes from min(T) [0 0 0 0 0 0 0] 8.31532e-21 to max(T) [0 0 0 0 0 0 0] 0.953483

ExecutionTime = 29.12 s  ClockTime = 518 s

Time = 0.225
Courant Number mean: 0.372732 max: 0.731048
diagonal:  Solving for T, Initial residual = 0, Final residual = 0, No Iterations 0
diagonal:  Solving for T, Initial residual = 0, Final residual = 0, No Iterations 0
diagonal:  Solving for T, Initial residual = 0, Final residual = 0, No Iterations 0
diagonal:  Solving for T, Initial residual = 0, Final residual = 0, No Iterations 0
 T goes from min(T) [0 0 0 0 0 0 0] 8.60113e-21 to max(T) [0 0 0 0 0 0 0] 0.954043

ExecutionTime = 29.62 s  ClockTime = 525 s

Time = 0.23
Courant Number mean: 0.372658 max: 0.730808
diagonal:  Solving for T, Initial residual = 0, Final residual = 0, No Iterations 0
diagonal:  Solving for T, Initial residual = 0, Final residual = 0, No Iterations 0
diagonal:  Solving for T, Initial residual = 0, Final residual = 0, No Iterations 0
diagonal:  Solving for T, Initial residual = 0, Final residual = 0, No Iterations 0
 T goes from min(T) [0 0 0 0 0 0 0] 9.0126e-21 to max(T) [0 0 0 0 0 0 0] 0.954235

ExecutionTime = 30.21 s  ClockTime = 534 s

Time = 0.235
Courant Number mean: 0.372563 max: 0.7306
diagonal:  Solving for T, Initial residual = 0, Final residual = 0, No Iterations 0
diagonal:  Solving for T, Initial residual = 0, Final residual = 0, No Iterations 0
diagonal:  Solving for T, Initial residual = 0, Final residual = 0, No Iterations 0
diagonal:  Solving for T, Initial residual = 0, Final residual = 0, No Iterations 0
 T goes from min(T) [0 0 0 0 0 0 0] 8.4539e-21 to max(T) [0 0 0 0 0 0 0] 0.9538

ExecutionTime = 30.69 s  ClockTime = 541 s

Time = 0.24
Courant Number mean: 0.372455 max: 0.730346
diagonal:  Solving for T, Initial residual = 0, Final residual = 0, No Iterations 0
diagonal:  Solving for T, Initial residual = 0, Final residual = 0, No Iterations 0
diagonal:  Solving for T, Initial residual = 0, Final residual = 0, No Iterations 0
diagonal:  Solving for T, Initial residual = 0, Final residual = 0, No Iterations 0
 T goes from min(T) [0 0 0 0 0 0 0] 8.28943e-21 to max(T) [0 0 0 0 0 0 0] 0.953825

ExecutionTime = 31.18 s  ClockTime = 549 s

Time = 0.245
Courant Number mean: 0.372398 max: 0.730133
diagonal:  Solving for T, Initial residual = 0, Final residual = 0, No Iterations 0
diagonal:  Solving for T, Initial residual = 0, Final residual = 0, No Iterations 0
diagonal:  Solving for T, Initial residual = 0, Final residual = 0, No Iterations 0
diagonal:  Solving for T, Initial residual = 0, Final residual = 0, No Iterations 0
 T goes from min(T) [0 0 0 0 0 0 0] 8.5159e-21 to max(T) [0 0 0 0 0 0 0] 0.954227

ExecutionTime = 31.66 s  ClockTime = 556 s

Time = 0.25
Courant Number mean: 0.37232 max: 0.729863
diagonal:  Solving for T, Initial residual = 0, Final residual = 0, No Iterations 0
diagonal:  Solving for T, Initial residual = 0, Final residual = 0, No Iterations 0
diagonal:  Solving for T, Initial residual = 0, Final residual = 0, No Iterations 0
diagonal:  Solving for T, Initial residual = 0, Final residual = 0, No Iterations 0
 T goes from min(T) [0 0 0 0 0 0 0] 9.10494e-21 to max(T) [0 0 0 0 0 0 0] 0.954016

ExecutionTime = 32.14 s  ClockTime = 563 s

Time = 0.255
Courant Number mean: 0.372221 max: 0.729645
diagonal:  Solving for T, Initial residual = 0, Final residual = 0, No Iterations 0
diagonal:  Solving for T, Initial residual = 0, Final residual = 0, No Iterations 0
diagonal:  Solving for T, Initial residual = 0, Final residual = 0, No Iterations 0
diagonal:  Solving for T, Initial residual = 0, Final residual = 0, No Iterations 0
 T goes from min(T) [0 0 0 0 0 0 0] 8.49471e-21 to max(T) [0 0 0 0 0 0 0] 0.95343

ExecutionTime = 32.64 s  ClockTime = 570 s

Time = 0.26
Courant Number mean: 0.372102 max: 0.729371
diagonal:  Solving for T, Initial residual = 0, Final residual = 0, No Iterations 0
diagonal:  Solving for T, Initial residual = 0, Final residual = 0, No Iterations 0
diagonal:  Solving for T, Initial residual = 0, Final residual = 0, No Iterations 0
diagonal:  Solving for T, Initial residual = 0, Final residual = 0, No Iterations 0
 T goes from min(T) [0 0 0 0 0 0 0] 8.27626e-21 to max(T) [0 0 0 0 0 0 0] 0.954049

ExecutionTime = 33.23 s  ClockTime = 579 s

Time = 0.265
Courant Number mean: 0.372035 max: 0.729138
diagonal:  Solving for T, Initial residual = 0, Final residual = 0, No Iterations 0
diagonal:  Solving for T, Initial residual = 0, Final residual = 0, No Iterations 0
diagonal:  Solving for T, Initial residual = 0, Final residual = 0, No Iterations 0
diagonal:  Solving for T, Initial residual = 0, Final residual = 0, No Iterations 0
 T goes from min(T) [0 0 0 0 0 0 0] 8.44557e-21 to max(T) [0 0 0 0 0 0 0] 0.954068

ExecutionTime = 33.78 s  ClockTime = 587 s

Time = 0.27
Courant Number mean: 0.371953 max: 0.728858
diagonal:  Solving for T, Initial residual = 0, Final residual = 0, No Iterations 0
diagonal:  Solving for T, Initial residual = 0, Final residual = 0, No Iterations 0
diagonal:  Solving for T, Initial residual = 0, Final residual = 0, No Iterations 0
diagonal:  Solving for T, Initial residual = 0, Final residual = 0, No Iterations 0
 T goes from min(T) [0 0 0 0 0 0 0] 9.0047e-21 to max(T) [0 0 0 0 0 0 0] 0.953519

ExecutionTime = 34.26 s  ClockTime = 595 s

Time = 0.275
Courant Number mean: 0.371851 max: 0.728611
diagonal:  Solving for T, Initial residual = 0, Final residual = 0, No Iterations 0
diagonal:  Solving for T, Initial residual = 0, Final residual = 0, No Iterations 0
diagonal:  Solving for T, Initial residual = 0, Final residual = 0, No Iterations 0
diagonal:  Solving for T, Initial residual = 0, Final residual = 0, No Iterations 0
 T goes from min(T) [0 0 0 0 0 0 0] 8.54613e-21 to max(T) [0 0 0 0 0 0 0] 0.953594

ExecutionTime = 34.74 s  ClockTime = 602 s

Time = 0.28
Courant Number mean: 0.371727 max: 0.728326
diagonal:  Solving for T, Initial residual = 0, Final residual = 0, No Iterations 0
diagonal:  Solving for T, Initial residual = 0, Final residual = 0, No Iterations 0
diagonal:  Solving for T, Initial residual = 0, Final residual = 0, No Iterations 0
diagonal:  Solving for T, Initial residual = 0, Final residual = 0, No Iterations 0
 T goes from min(T) [0 0 0 0 0 0 0] 8.27526e-21 to max(T) [0 0 0 0 0 0 0] 0.953852

ExecutionTime = 35.24 s  ClockTime = 609 s

Time = 0.285
Courant Number mean: 0.371643 max: 0.728065
diagonal:  Solving for T, Initial residual = 0, Final residual = 0, No Iterations 0
diagonal:  Solving for T, Initial residual = 0, Final residual = 0, No Iterations 0
diagonal:  Solving for T, Initial residual = 0, Final residual = 0, No Iterations 0
diagonal:  Solving for T, Initial residual = 0, Final residual = 0, No Iterations 0
 T goes from min(T) [0 0 0 0 0 0 0] 8.38935e-21 to max(T) [0 0 0 0 0 0 0] 0.953829

ExecutionTime = 35.71 s  ClockTime = 616 s

Time = 0.29
Courant Number mean: 0.371558 max: 0.727774
diagonal:  Solving for T, Initial residual = 0, Final residual = 0, No Iterations 0
diagonal:  Solving for T, Initial residual = 0, Final residual = 0, No Iterations 0
diagonal:  Solving for T, Initial residual = 0, Final residual = 0, No Iterations 0
diagonal:  Solving for T, Initial residual = 0, Final residual = 0, No Iterations 0
 T goes from min(T) [0 0 0 0 0 0 0] 8.88981e-21 to max(T) [0 0 0 0 0 0 0] 0.952954

ExecutionTime = 36.2 s  ClockTime = 624 s

Time = 0.295
Courant Number mean: 0.371452 max: 0.727498
diagonal:  Solving for T, Initial residual = 0, Final residual = 0, No Iterations 0
diagonal:  Solving for T, Initial residual = 0, Final residual = 0, No Iterations 0
diagonal:  Solving for T, Initial residual = 0, Final residual = 0, No Iterations 0
diagonal:  Solving for T, Initial residual = 0, Final residual = 0, No Iterations 0
 T goes from min(T) [0 0 0 0 0 0 0] 8.60778e-21 to max(T) [0 0 0 0 0 0 0] 0.95363

ExecutionTime = 36.68 s  ClockTime = 631 s

Time = 0.3
Courant Number mean: 0.371325 max: 0.727203
diagonal:  Solving for T, Initial residual = 0, Final residual = 0, No Iterations 0
diagonal:  Solving for T, Initial residual = 0, Final residual = 0, No Iterations 0
diagonal:  Solving for T, Initial residual = 0, Final residual = 0, No Iterations 0
diagonal:  Solving for T, Initial residual = 0, Final residual = 0, No Iterations 0
 T goes from min(T) [0 0 0 0 0 0 0] 8.28588e-21 to max(T) [0 0 0 0 0 0 0] 0.953923

ExecutionTime = 37.23 s  ClockTime = 639 s

Time = 0.305
Courant Number mean: 0.371224 max: 0.726913
diagonal:  Solving for T, Initial residual = 0, Final residual = 0, No Iterations 0
diagonal:  Solving for T, Initial residual = 0, Final residual = 0, No Iterations 0
diagonal:  Solving for T, Initial residual = 0, Final residual = 0, No Iterations 0
diagonal:  Solving for T, Initial residual = 0, Final residual = 0, No Iterations 0
 T goes from min(T) [0 0 0 0 0 0 0] 8.3465e-21 to max(T) [0 0 0 0 0 0 0] 0.953628

ExecutionTime = 37.81 s  ClockTime = 648 s

Time = 0.31
Courant Number mean: 0.371135 max: 0.726611
diagonal:  Solving for T, Initial residual = 0, Final residual = 0, No Iterations 0
diagonal:  Solving for T, Initial residual = 0, Final residual = 0, No Iterations 0
diagonal:  Solving for T, Initial residual = 0, Final residual = 0, No Iterations 0
diagonal:  Solving for T, Initial residual = 0, Final residual = 0, No Iterations 0
 T goes from min(T) [0 0 0 0 0 0 0] 8.79035e-21 to max(T) [0 0 0 0 0 0 0] 0.953392

ExecutionTime = 38.31 s  ClockTime = 655 s

Time = 0.315
Courant Number mean: 0.371026 max: 0.726307
diagonal:  Solving for T, Initial residual = 0, Final residual = 0, No Iterations 0
diagonal:  Solving for T, Initial residual = 0, Final residual = 0, No Iterations 0
diagonal:  Solving for T, Initial residual = 0, Final residual = 0, No Iterations 0
diagonal:  Solving for T, Initial residual = 0, Final residual = 0, No Iterations 0
 T goes from min(T) [0 0 0 0 0 0 0] 8.67926e-21 to max(T) [0 0 0 0 0 0 0] 0.954051

ExecutionTime = 38.81 s  ClockTime = 663 s

Time = 0.32
Courant Number mean: 0.370895 max: 0.726001
diagonal:  Solving for T, Initial residual = 0, Final residual = 0, No Iterations 0
diagonal:  Solving for T, Initial residual = 0, Final residual = 0, No Iterations 0
diagonal:  Solving for T, Initial residual = 0, Final residual = 0, No Iterations 0
diagonal:  Solving for T, Initial residual = 0, Final residual = 0, No Iterations 0
 T goes from min(T) [0 0 0 0 0 0 0] 8.30758e-21 to max(T) [0 0 0 0 0 0 0] 0.954172

ExecutionTime = 39.29 s  ClockTime = 670 s

Time = 0.325
Courant Number mean: 0.370777 max: 0.725683
diagonal:  Solving for T, Initial residual = 0, Final residual = 0, No Iterations 0
diagonal:  Solving for T, Initial residual = 0, Final residual = 0, No Iterations 0
diagonal:  Solving for T, Initial residual = 0, Final residual = 0, No Iterations 0
diagonal:  Solving for T, Initial residual = 0, Final residual = 0, No Iterations 0
 T goes from min(T) [0 0 0 0 0 0 0] 8.31629e-21 to max(T) [0 0 0 0 0 0 0] 0.953784

ExecutionTime = 39.77 s  ClockTime = 677 s

Time = 0.33
Courant Number mean: 0.370685 max: 0.72537
diagonal:  Solving for T, Initial residual = 0, Final residual = 0, No Iterations 0
diagonal:  Solving for T, Initial residual = 0, Final residual = 0, No Iterations 0
diagonal:  Solving for T, Initial residual = 0, Final residual = 0, No Iterations 0
diagonal:  Solving for T, Initial residual = 0, Final residual = 0, No Iterations 0
 T goes from min(T) [0 0 0 0 0 0 0] 8.7054e-21 to max(T) [0 0 0 0 0 0 0] 0.953709

ExecutionTime = 40.27 s  ClockTime = 685 s

Time = 0.335
Courant Number mean: 0.370572 max: 0.725038
diagonal:  Solving for T, Initial residual = 0, Final residual = 0, No Iterations 0
diagonal:  Solving for T, Initial residual = 0, Final residual = 0, No Iterations 0
diagonal:  Solving for T, Initial residual = 0, Final residual = 0, No Iterations 0
diagonal:  Solving for T, Initial residual = 0, Final residual = 0, No Iterations 0
 T goes from min(T) [0 0 0 0 0 0 0] 8.76019e-21 to max(T) [0 0 0 0 0 0 0] 0.954128

ExecutionTime = 40.74 s  ClockTime = 692 s

Time = 0.34
Courant Number mean: 0.370438 max: 0.724721
diagonal:  Solving for T, Initial residual = 0, Final residual = 0, No Iterations 0
diagonal:  Solving for T, Initial residual = 0, Final residual = 0, No Iterations 0
diagonal:  Solving for T, Initial residual = 0, Final residual = 0, No Iterations 0
diagonal:  Solving for T, Initial residual = 0, Final residual = 0, No Iterations 0
 T goes from min(T) [0 0 0 0 0 0 0] 8.33983e-21 to max(T) [0 0 0 0 0 0 0] 0.954043

ExecutionTime = 41.28 s  ClockTime = 700 s

Time = 0.345
Courant Number mean: 0.370303 max: 0.724375
diagonal:  Solving for T, Initial residual = 0, Final residual = 0, No Iterations 0
diagonal:  Solving for T, Initial residual = 0, Final residual = 0, No Iterations 0
diagonal:  Solving for T, Initial residual = 0, Final residual = 0, No Iterations 0
diagonal:  Solving for T, Initial residual = 0, Final residual = 0, No Iterations 0
 T goes from min(T) [0 0 0 0 0 0 0] 8.29806e-21 to max(T) [0 0 0 0 0 0 0] 0.953482

ExecutionTime = 41.77 s  ClockTime = 707 s

Time = 0.35
Courant Number mean: 0.370207 max: 0.724051
diagonal:  Solving for T, Initial residual = 0, Final residual = 0, No Iterations 0
diagonal:  Solving for T, Initial residual = 0, Final residual = 0, No Iterations 0
diagonal:  Solving for T, Initial residual = 0, Final residual = 0, No Iterations 0
diagonal:  Solving for T, Initial residual = 0, Final residual = 0, No Iterations 0
 T goes from min(T) [0 0 0 0 0 0 0] 8.63411e-21 to max(T) [0 0 0 0 0 0 0] 0.953573

ExecutionTime = 42.25 s  ClockTime = 714 s

Time = 0.355
Courant Number mean: 0.370091 max: 0.723691
diagonal:  Solving for T, Initial residual = 0, Final residual = 0, No Iterations 0
diagonal:  Solving for T, Initial residual = 0, Final residual = 0, No Iterations 0
diagonal:  Solving for T, Initial residual = 0, Final residual = 0, No Iterations 0
diagonal:  Solving for T, Initial residual = 0, Final residual = 0, No Iterations 0
 T goes from min(T) [0 0 0 0 0 0 0] 8.85021e-21 to max(T) [0 0 0 0 0 0 0] 0.953583

ExecutionTime = 42.76 s  ClockTime = 722 s

Time = 0.36
Courant Number mean: 0.369953 max: 0.723363
diagonal:  Solving for T, Initial residual = 0, Final residual = 0, No Iterations 0
diagonal:  Solving for T, Initial residual = 0, Final residual = 0, No Iterations 0
diagonal:  Solving for T, Initial residual = 0, Final residual = 0, No Iterations 0
diagonal:  Solving for T, Initial residual = 0, Final residual = 0, No Iterations 0
 T goes from min(T) [0 0 0 0 0 0 0] 8.38215e-21 to max(T) [0 0 0 0 0 0 0] 0.953896

ExecutionTime = 43.27 s  ClockTime = 730 s

Time = 0.365
Courant Number mean: 0.369802 max: 0.722989
diagonal:  Solving for T, Initial residual = 0, Final residual = 0, No Iterations 0
diagonal:  Solving for T, Initial residual = 0, Final residual = 0, No Iterations 0
diagonal:  Solving for T, Initial residual = 0, Final residual = 0, No Iterations 0
diagonal:  Solving for T, Initial residual = 0, Final residual = 0, No Iterations 0
 T goes from min(T) [0 0 0 0 0 0 0] 8.29115e-21 to max(T) [0 0 0 0 0 0 0] 0.95319

ExecutionTime = 43.75 s  ClockTime = 737 s

Time = 0.37
Courant Number mean: 0.369702 max: 0.722655
diagonal:  Solving for T, Initial residual = 0, Final residual = 0, No Iterations 0
diagonal:  Solving for T, Initial residual = 0, Final residual = 0, No Iterations 0
diagonal:  Solving for T, Initial residual = 0, Final residual = 0, No Iterations 0
diagonal:  Solving for T, Initial residual = 0, Final residual = 0, No Iterations 0
 T goes from min(T) [0 0 0 0 0 0 0] 8.57569e-21 to max(T) [0 0 0 0 0 0 0] 0.953749

ExecutionTime = 44.22 s  ClockTime = 743 s

Time = 0.375
Courant Number mean: 0.369582 max: 0.722266
diagonal:  Solving for T, Initial residual = 0, Final residual = 0, No Iterations 0
diagonal:  Solving for T, Initial residual = 0, Final residual = 0, No Iterations 0
diagonal:  Solving for T, Initial residual = 0, Final residual = 0, No Iterations 0
diagonal:  Solving for T, Initial residual = 0, Final residual = 0, No Iterations 0
 T goes from min(T) [0 0 0 0 0 0 0] 8.94896e-21 to max(T) [0 0 0 0 0 0 0] 0.954158

ExecutionTime = 44.72 s  ClockTime = 750 s

Time = 0.38
Courant Number mean: 0.369441 max: 0.721927
diagonal:  Solving for T, Initial residual = 0, Final residual = 0, No Iterations 0
diagonal:  Solving for T, Initial residual = 0, Final residual = 0, No Iterations 0
diagonal:  Solving for T, Initial residual = 0, Final residual = 0, No Iterations 0
diagonal:  Solving for T, Initial residual = 0, Final residual = 0, No Iterations 0
 T goes from min(T) [0 0 0 0 0 0 0] 8.43407e-21 to max(T) [0 0 0 0 0 0 0] 0.954099

ExecutionTime = 45.2 s  ClockTime = 757 s

Time = 0.385
Courant Number mean: 0.36928 max: 0.721534
diagonal:  Solving for T, Initial residual = 0, Final residual = 0, No Iterations 0
diagonal:  Solving for T, Initial residual = 0, Final residual = 0, No Iterations 0
diagonal:  Solving for T, Initial residual = 0, Final residual = 0, No Iterations 0
diagonal:  Solving for T, Initial residual = 0, Final residual = 0, No Iterations 0
 T goes from min(T) [0 0 0 0 0 0 0] 8.29498e-21 to max(T) [0 0 0 0 0 0 0] 0.9536

ExecutionTime = 45.67 s  ClockTime = 763 s

Time = 0.39
Courant Number mean: 0.36917 max: 0.72118
diagonal:  Solving for T, Initial residual = 0, Final residual = 0, No Iterations 0
diagonal:  Solving for T, Initial residual = 0, Final residual = 0, No Iterations 0
diagonal:  Solving for T, Initial residual = 0, Final residual = 0, No Iterations 0
diagonal:  Solving for T, Initial residual = 0, Final residual = 0, No Iterations 0
 T goes from min(T) [0 0 0 0 0 0 0] 8.52941e-21 to max(T) [0 0 0 0 0 0 0] 0.953486

ExecutionTime = 46.15 s  ClockTime = 769 s

Time = 0.395
Courant Number mean: 0.369046 max: 0.720781
diagonal:  Solving for T, Initial residual = 0, Final residual = 0, No Iterations 0
diagonal:  Solving for T, Initial residual = 0, Final residual = 0, No Iterations 0
diagonal:  Solving for T, Initial residual = 0, Final residual = 0, No Iterations 0
diagonal:  Solving for T, Initial residual = 0, Final residual = 0, No Iterations 0
 T goes from min(T) [0 0 0 0 0 0 0] 9.05611e-21 to max(T) [0 0 0 0 0 0 0] 0.95354

ExecutionTime = 46.64 s  ClockTime = 775 s

Time = 0.4
Courant Number mean: 0.368902 max: 0.720414
diagonal:  Solving for T, Initial residual = 0, Final residual = 0, No Iterations 0
diagonal:  Solving for T, Initial residual = 0, Final residual = 0, No Iterations 0
diagonal:  Solving for T, Initial residual = 0, Final residual = 0, No Iterations 0
diagonal:  Solving for T, Initial residual = 0, Final residual = 0, No Iterations 0
 T goes from min(T) [0 0 0 0 0 0 0] 8.49514e-21 to max(T) [0 0 0 0 0 0 0] 0.953865

ExecutionTime = 47.12 s  ClockTime = 782 s

Time = 0.405
Courant Number mean: 0.368738 max: 0.72001
diagonal:  Solving for T, Initial residual = 0, Final residual = 0, No Iterations 0
diagonal:  Solving for T, Initial residual = 0, Final residual = 0, No Iterations 0
diagonal:  Solving for T, Initial residual = 0, Final residual = 0, No Iterations 0
diagonal:  Solving for T, Initial residual = 0, Final residual = 0, No Iterations 0
 T goes from min(T) [0 0 0 0 0 0 0] 8.309e-21 to max(T) [0 0 0 0 0 0 0] 0.953286

ExecutionTime = 47.58 s  ClockTime = 788 s

Time = 0.41
Courant Number mean: 0.368612 max: 0.719629
diagonal:  Solving for T, Initial residual = 0, Final residual = 0, No Iterations 0
diagonal:  Solving for T, Initial residual = 0, Final residual = 0, No Iterations 0
diagonal:  Solving for T, Initial residual = 0, Final residual = 0, No Iterations 0
diagonal:  Solving for T, Initial residual = 0, Final residual = 0, No Iterations 0
 T goes from min(T) [0 0 0 0 0 0 0] 8.49457e-21 to max(T) [0 0 0 0 0 0 0] 0.953408

ExecutionTime = 48.13 s  ClockTime = 795 s

Time = 0.415
Courant Number mean: 0.368484 max: 0.719218
diagonal:  Solving for T, Initial residual = 0, Final residual = 0, No Iterations 0
diagonal:  Solving for T, Initial residual = 0, Final residual = 0, No Iterations 0
diagonal:  Solving for T, Initial residual = 0, Final residual = 0, No Iterations 0
diagonal:  Solving for T, Initial residual = 0, Final residual = 0, No Iterations 0
 T goes from min(T) [0 0 0 0 0 0 0] 9.05533e-21 to max(T) [0 0 0 0 0 0 0] 0.953962

ExecutionTime = 48.61 s  ClockTime = 801 s

Time = 0.42
Courant Number mean: 0.368337 max: 0.718824
diagonal:  Solving for T, Initial residual = 0, Final residual = 0, No Iterations 0
diagonal:  Solving for T, Initial residual = 0, Final residual = 0, No Iterations 0
diagonal:  Solving for T, Initial residual = 0, Final residual = 0, No Iterations 0
diagonal:  Solving for T, Initial residual = 0, Final residual = 0, No Iterations 0
 T goes from min(T) [0 0 0 0 0 0 0] 8.56496e-21 to max(T) [0 0 0 0 0 0 0] 0.954073

ExecutionTime = 49.07 s  ClockTime = 807 s

Time = 0.425
Courant Number mean: 0.36817 max: 0.718409
diagonal:  Solving for T, Initial residual = 0, Final residual = 0, No Iterations 0
diagonal:  Solving for T, Initial residual = 0, Final residual = 0, No Iterations 0
diagonal:  Solving for T, Initial residual = 0, Final residual = 0, No Iterations 0
diagonal:  Solving for T, Initial residual = 0, Final residual = 0, No Iterations 0
 T goes from min(T) [0 0 0 0 0 0 0] 8.33267e-21 to max(T) [0 0 0 0 0 0 0] 0.953768

ExecutionTime = 49.55 s  ClockTime = 813 s

Time = 0.43
Courant Number mean: 0.368027 max: 0.718
diagonal:  Solving for T, Initial residual = 0, Final residual = 0, No Iterations 0
diagonal:  Solving for T, Initial residual = 0, Final residual = 0, No Iterations 0
diagonal:  Solving for T, Initial residual = 0, Final residual = 0, No Iterations 0
diagonal:  Solving for T, Initial residual = 0, Final residual = 0, No Iterations 0
 T goes from min(T) [0 0 0 0 0 0 0] 8.47054e-21 to max(T) [0 0 0 0 0 0 0] 0.953071

ExecutionTime = 50.06 s  ClockTime = 820 s

Time = 0.435
Courant Number mean: 0.367896 max: 0.717579
diagonal:  Solving for T, Initial residual = 0, Final residual = 0, No Iterations 0
diagonal:  Solving for T, Initial residual = 0, Final residual = 0, No Iterations 0
diagonal:  Solving for T, Initial residual = 0, Final residual = 0, No Iterations 0
diagonal:  Solving for T, Initial residual = 0, Final residual = 0, No Iterations 0
 T goes from min(T) [0 0 0 0 0 0 0] 8.98129e-21 to max(T) [0 0 0 0 0 0 0] 0.95363

ExecutionTime = 50.55 s  ClockTime = 826 s

Time = 0.44
Courant Number mean: 0.367746 max: 0.717156
diagonal:  Solving for T, Initial residual = 0, Final residual = 0, No Iterations 0
diagonal:  Solving for T, Initial residual = 0, Final residual = 0, No Iterations 0
diagonal:  Solving for T, Initial residual = 0, Final residual = 0, No Iterations 0
diagonal:  Solving for T, Initial residual = 0, Final residual = 0, No Iterations 0
 T goes from min(T) [0 0 0 0 0 0 0] 8.64315e-21 to max(T) [0 0 0 0 0 0 0] 0.953909

ExecutionTime = 51.03 s  ClockTime = 832 s

Time = 0.445
Courant Number mean: 0.367576 max: 0.716731
diagonal:  Solving for T, Initial residual = 0, Final residual = 0, No Iterations 0
diagonal:  Solving for T, Initial residual = 0, Final residual = 0, No Iterations 0
diagonal:  Solving for T, Initial residual = 0, Final residual = 0, No Iterations 0
diagonal:  Solving for T, Initial residual = 0, Final residual = 0, No Iterations 0
 T goes from min(T) [0 0 0 0 0 0 0] 8.36553e-21 to max(T) [0 0 0 0 0 0 0] 0.953812

ExecutionTime = 51.51 s  ClockTime = 839 s

Time = 0.45
Courant Number mean: 0.367417 max: 0.716294
diagonal:  Solving for T, Initial residual = 0, Final residual = 0, No Iterations 0
diagonal:  Solving for T, Initial residual = 0, Final residual = 0, No Iterations 0
diagonal:  Solving for T, Initial residual = 0, Final residual = 0, No Iterations 0
diagonal:  Solving for T, Initial residual = 0, Final residual = 0, No Iterations 0
 T goes from min(T) [0 0 0 0 0 0 0] 8.45674e-21 to max(T) [0 0 0 0 0 0 0] 0.953321

ExecutionTime = 52 s  ClockTime = 845 s

Time = 0.455
Courant Number mean: 0.367282 max: 0.715863
diagonal:  Solving for T, Initial residual = 0, Final residual = 0, No Iterations 0
diagonal:  Solving for T, Initial residual = 0, Final residual = 0, No Iterations 0
diagonal:  Solving for T, Initial residual = 0, Final residual = 0, No Iterations 0
diagonal:  Solving for T, Initial residual = 0, Final residual = 0, No Iterations 0
 T goes from min(T) [0 0 0 0 0 0 0] 8.91871e-21 to max(T) [0 0 0 0 0 0 0] 0.953191

ExecutionTime = 52.48 s  ClockTime = 851 s

Time = 0.46
Courant Number mean: 0.367128 max: 0.715412
diagonal:  Solving for T, Initial residual = 0, Final residual = 0, No Iterations 0
diagonal:  Solving for T, Initial residual = 0, Final residual = 0, No Iterations 0
diagonal:  Solving for T, Initial residual = 0, Final residual = 0, No Iterations 0
diagonal:  Solving for T, Initial residual = 0, Final residual = 0, No Iterations 0
 T goes from min(T) [0 0 0 0 0 0 0] 8.72935e-21 to max(T) [0 0 0 0 0 0 0] 0.953365

ExecutionTime = 52.96 s  ClockTime = 858 s

Time = 0.465
Courant Number mean: 0.366954 max: 0.714976
diagonal:  Solving for T, Initial residual = 0, Final residual = 0, No Iterations 0
diagonal:  Solving for T, Initial residual = 0, Final residual = 0, No Iterations 0
diagonal:  Solving for T, Initial residual = 0, Final residual = 0, No Iterations 0
diagonal:  Solving for T, Initial residual = 0, Final residual = 0, No Iterations 0
 T goes from min(T) [0 0 0 0 0 0 0] 8.40713e-21 to max(T) [0 0 0 0 0 0 0] 0.953893

ExecutionTime = 53.47 s  ClockTime = 864 s

Time = 0.47
Courant Number mean: 0.36678 max: 0.714512
diagonal:  Solving for T, Initial residual = 0, Final residual = 0, No Iterations 0
diagonal:  Solving for T, Initial residual = 0, Final residual = 0, No Iterations 0
diagonal:  Solving for T, Initial residual = 0, Final residual = 0, No Iterations 0
diagonal:  Solving for T, Initial residual = 0, Final residual = 0, No Iterations 0
 T goes from min(T) [0 0 0 0 0 0 0] 8.4526e-21 to max(T) [0 0 0 0 0 0 0] 0.953255

ExecutionTime = 53.95 s  ClockTime = 870 s

Time = 0.475
Courant Number mean: 0.366642 max: 0.71407
diagonal:  Solving for T, Initial residual = 0, Final residual = 0, No Iterations 0
diagonal:  Solving for T, Initial residual = 0, Final residual = 0, No Iterations 0
diagonal:  Solving for T, Initial residual = 0, Final residual = 0, No Iterations 0
diagonal:  Solving for T, Initial residual = 0, Final residual = 0, No Iterations 0
 T goes from min(T) [0 0 0 0 0 0 0] 8.86695e-21 to max(T) [0 0 0 0 0 0 0] 0.953006

ExecutionTime = 54.52 s  ClockTime = 878 s

Time = 0.48
Courant Number mean: 0.366484 max: 0.713591
diagonal:  Solving for T, Initial residual = 0, Final residual = 0, No Iterations 0
diagonal:  Solving for T, Initial residual = 0, Final residual = 0, No Iterations 0
diagonal:  Solving for T, Initial residual = 0, Final residual = 0, No Iterations 0
diagonal:  Solving for T, Initial residual = 0, Final residual = 0, No Iterations 0
 T goes from min(T) [0 0 0 0 0 0 0] 8.82325e-21 to max(T) [0 0 0 0 0 0 0] 0.952945

ExecutionTime = 55.01 s  ClockTime = 884 s

Time = 0.485
Courant Number mean: 0.366307 max: 0.713145
diagonal:  Solving for T, Initial residual = 0, Final residual = 0, No Iterations 0
diagonal:  Solving for T, Initial residual = 0, Final residual = 0, No Iterations 0
diagonal:  Solving for T, Initial residual = 0, Final residual = 0, No Iterations 0
diagonal:  Solving for T, Initial residual = 0, Final residual = 0, No Iterations 0
 T goes from min(T) [0 0 0 0 0 0 0] 8.45705e-21 to max(T) [0 0 0 0 0 0 0] 0.953757

ExecutionTime = 55.49 s  ClockTime = 890 s

Time = 0.49
Courant Number mean: 0.366117 max: 0.712653
diagonal:  Solving for T, Initial residual = 0, Final residual = 0, No Iterations 0
diagonal:  Solving for T, Initial residual = 0, Final residual = 0, No Iterations 0
diagonal:  Solving for T, Initial residual = 0, Final residual = 0, No Iterations 0
diagonal:  Solving for T, Initial residual = 0, Final residual = 0, No Iterations 0
 T goes from min(T) [0 0 0 0 0 0 0] 8.45764e-21 to max(T) [0 0 0 0 0 0 0] 0.953424

ExecutionTime = 55.98 s  ClockTime = 897 s

Time = 0.495
Courant Number mean: 0.365975 max: 0.712201
diagonal:  Solving for T, Initial residual = 0, Final residual = 0, No Iterations 0
diagonal:  Solving for T, Initial residual = 0, Final residual = 0, No Iterations 0
diagonal:  Solving for T, Initial residual = 0, Final residual = 0, No Iterations 0
diagonal:  Solving for T, Initial residual = 0, Final residual = 0, No Iterations 0
 T goes from min(T) [0 0 0 0 0 0 0] 8.8254e-21 to max(T) [0 0 0 0 0 0 0] 0.953498

ExecutionTime = 56.48 s  ClockTime = 903 s

Time = 0.5
Courant Number mean: 0.365815 max: 0.711695
diagonal:  Solving for T, Initial residual = 0, Final residual = 0, No Iterations 0
diagonal:  Solving for T, Initial residual = 0, Final residual = 0, No Iterations 0
diagonal:  Solving for T, Initial residual = 0, Final residual = 0, No Iterations 0
diagonal:  Solving for T, Initial residual = 0, Final residual = 0, No Iterations 0
 T goes from min(T) [0 0 0 0 0 0 0] 8.92454e-21 to max(T) [0 0 0 0 0 0 0] 0.952437

ExecutionTime = 56.97 s  ClockTime = 910 s

Time = 0.505
Courant Number mean: 0.365634 max: 0.711238
diagonal:  Solving for T, Initial residual = 0, Final residual = 0, No Iterations 0
diagonal:  Solving for T, Initial residual = 0, Final residual = 0, No Iterations 0
diagonal:  Solving for T, Initial residual = 0, Final residual = 0, No Iterations 0
diagonal:  Solving for T, Initial residual = 0, Final residual = 0, No Iterations 0
 T goes from min(T) [0 0 0 0 0 0 0] 8.51492e-21 to max(T) [0 0 0 0 0 0 0] 0.953216

ExecutionTime = 57.45 s  ClockTime = 916 s

Time = 0.51
Courant Number mean: 0.365433 max: 0.710727
diagonal:  Solving for T, Initial residual = 0, Final residual = 0, No Iterations 0
diagonal:  Solving for T, Initial residual = 0, Final residual = 0, No Iterations 0
diagonal:  Solving for T, Initial residual = 0, Final residual = 0, No Iterations 0
diagonal:  Solving for T, Initial residual = 0, Final residual = 0, No Iterations 0
 T goes from min(T) [0 0 0 0 0 0 0] 8.47137e-21 to max(T) [0 0 0 0 0 0 0] 0.953311

ExecutionTime = 57.95 s  ClockTime = 922 s

Time = 0.515
Courant Number mean: 0.365283 max: 0.710256
diagonal:  Solving for T, Initial residual = 0, Final residual = 0, No Iterations 0
diagonal:  Solving for T, Initial residual = 0, Final residual = 0, No Iterations 0
diagonal:  Solving for T, Initial residual = 0, Final residual = 0, No Iterations 0
diagonal:  Solving for T, Initial residual = 0, Final residual = 0, No Iterations 0
 T goes from min(T) [0 0 0 0 0 0 0] 8.79349e-21 to max(T) [0 0 0 0 0 0 0] 0.953741

ExecutionTime = 58.47 s  ClockTime = 929 s

Time = 0.52
Courant Number mean: 0.36512 max: 0.70974
diagonal:  Solving for T, Initial residual = 0, Final residual = 0, No Iterations 0
diagonal:  Solving for T, Initial residual = 0, Final residual = 0, No Iterations 0
diagonal:  Solving for T, Initial residual = 0, Final residual = 0, No Iterations 0
diagonal:  Solving for T, Initial residual = 0, Final residual = 0, No Iterations 0
 T goes from min(T) [0 0 0 0 0 0 0] 9.03294e-21 to max(T) [0 0 0 0 0 0 0] 0.953091

ExecutionTime = 59 s  ClockTime = 936 s

Time = 0.525
Courant Number mean: 0.364936 max: 0.709255
diagonal:  Solving for T, Initial residual = 0, Final residual = 0, No Iterations 0
diagonal:  Solving for T, Initial residual = 0, Final residual = 0, No Iterations 0
diagonal:  Solving for T, Initial residual = 0, Final residual = 0, No Iterations 0
diagonal:  Solving for T, Initial residual = 0, Final residual = 0, No Iterations 0
 T goes from min(T) [0 0 0 0 0 0 0] 8.58038e-21 to max(T) [0 0 0 0 0 0 0] 0.952793

ExecutionTime = 59.5 s  ClockTime = 943 s

Time = 0.53
Courant Number mean: 0.364732 max: 0.708734
diagonal:  Solving for T, Initial residual = 0, Final residual = 0, No Iterations 0
diagonal:  Solving for T, Initial residual = 0, Final residual = 0, No Iterations 0
diagonal:  Solving for T, Initial residual = 0, Final residual = 0, No Iterations 0
diagonal:  Solving for T, Initial residual = 0, Final residual = 0, No Iterations 0
 T goes from min(T) [0 0 0 0 0 0 0] 8.49338e-21 to max(T) [0 0 0 0 0 0 0] 0.95287

ExecutionTime = 59.98 s  ClockTime = 949 s

Time = 0.535
Courant Number mean: 0.364566 max: 0.708236
diagonal:  Solving for T, Initial residual = 0, Final residual = 0, No Iterations 0
diagonal:  Solving for T, Initial residual = 0, Final residual = 0, No Iterations 0
diagonal:  Solving for T, Initial residual = 0, Final residual = 0, No Iterations 0
diagonal:  Solving for T, Initial residual = 0, Final residual = 0, No Iterations 0
 T goes from min(T) [0 0 0 0 0 0 0] 8.77071e-21 to max(T) [0 0 0 0 0 0 0] 0.953276

ExecutionTime = 60.47 s  ClockTime = 955 s

Time = 0.54
Courant Number mean: 0.3644 max: 0.707709
diagonal:  Solving for T, Initial residual = 0, Final residual = 0, No Iterations 0
diagonal:  Solving for T, Initial residual = 0, Final residual = 0, No Iterations 0
diagonal:  Solving for T, Initial residual = 0, Final residual = 0, No Iterations 0
diagonal:  Solving for T, Initial residual = 0, Final residual = 0, No Iterations 0
 T goes from min(T) [0 0 0 0 0 0 0] 9.14822e-21 to max(T) [0 0 0 0 0 0 0] 0.953627

ExecutionTime = 60.95 s  ClockTime = 961 s

Time = 0.545
Courant Number mean: 0.364213 max: 0.707197
diagonal:  Solving for T, Initial residual = 0, Final residual = 0, No Iterations 0
diagonal:  Solving for T, Initial residual = 0, Final residual = 0, No Iterations 0
diagonal:  Solving for T, Initial residual = 0, Final residual = 0, No Iterations 0
diagonal:  Solving for T, Initial residual = 0, Final residual = 0, No Iterations 0
 T goes from min(T) [0 0 0 0 0 0 0] 8.65313e-21 to max(T) [0 0 0 0 0 0 0] 0.953261

ExecutionTime = 61.43 s  ClockTime = 968 s

Time = 0.55
Courant Number mean: 0.364005 max: 0.706666
diagonal:  Solving for T, Initial residual = 0, Final residual = 0, No Iterations 0
diagonal:  Solving for T, Initial residual = 0, Final residual = 0, No Iterations 0
diagonal:  Solving for T, Initial residual = 0, Final residual = 0, No Iterations 0
diagonal:  Solving for T, Initial residual = 0, Final residual = 0, No Iterations 0
 T goes from min(T) [0 0 0 0 0 0 0] 8.52327e-21 to max(T) [0 0 0 0 0 0 0] 0.952898

ExecutionTime = 61.91 s  ClockTime = 974 s

Time = 0.555
Courant Number mean: 0.363823 max: 0.70614
diagonal:  Solving for T, Initial residual = 0, Final residual = 0, No Iterations 0
diagonal:  Solving for T, Initial residual = 0, Final residual = 0, No Iterations 0
diagonal:  Solving for T, Initial residual = 0, Final residual = 0, No Iterations 0
diagonal:  Solving for T, Initial residual = 0, Final residual = 0, No Iterations 0
 T goes from min(T) [0 0 0 0 0 0 0] 8.75658e-21 to max(T) [0 0 0 0 0 0 0] 0.9522

ExecutionTime = 62.48 s  ClockTime = 981 s

Time = 0.56
Courant Number mean: 0.363654 max: 0.705603
diagonal:  Solving for T, Initial residual = 0, Final residual = 0, No Iterations 0
diagonal:  Solving for T, Initial residual = 0, Final residual = 0, No Iterations 0
diagonal:  Solving for T, Initial residual = 0, Final residual = 0, No Iterations 0
diagonal:  Solving for T, Initial residual = 0, Final residual = 0, No Iterations 0
 T goes from min(T) [0 0 0 0 0 0 0] 9.27015e-21 to max(T) [0 0 0 0 0 0 0] 0.952996

ExecutionTime = 63 s  ClockTime = 988 s

Time = 0.565
Courant Number mean: 0.363464 max: 0.705063
diagonal:  Solving for T, Initial residual = 0, Final residual = 0, No Iterations 0
diagonal:  Solving for T, Initial residual = 0, Final residual = 0, No Iterations 0
diagonal:  Solving for T, Initial residual = 0, Final residual = 0, No Iterations 0
diagonal:  Solving for T, Initial residual = 0, Final residual = 0, No Iterations 0
 T goes from min(T) [0 0 0 0 0 0 0] 8.73287e-21 to max(T) [0 0 0 0 0 0 0] 0.953414

ExecutionTime = 63.5 s  ClockTime = 995 s

Time = 0.57
Courant Number mean: 0.363254 max: 0.704522
diagonal:  Solving for T, Initial residual = 0, Final residual = 0, No Iterations 0
diagonal:  Solving for T, Initial residual = 0, Final residual = 0, No Iterations 0
diagonal:  Solving for T, Initial residual = 0, Final residual = 0, No Iterations 0
diagonal:  Solving for T, Initial residual = 0, Final residual = 0, No Iterations 0
 T goes from min(T) [0 0 0 0 0 0 0] 8.56068e-21 to max(T) [0 0 0 0 0 0 0] 0.953417

ExecutionTime = 63.98 s  ClockTime = 1001 s

Time = 0.575
Courant Number mean: 0.363057 max: 0.703969
diagonal:  Solving for T, Initial residual = 0, Final residual = 0, No Iterations 0
diagonal:  Solving for T, Initial residual = 0, Final residual = 0, No Iterations 0
diagonal:  Solving for T, Initial residual = 0, Final residual = 0, No Iterations 0
diagonal:  Solving for T, Initial residual = 0, Final residual = 0, No Iterations 0
 T goes from min(T) [0 0 0 0 0 0 0] 8.75067e-21 to max(T) [0 0 0 0 0 0 0] 0.953095

ExecutionTime = 64.46 s  ClockTime = 1007 s

Time = 0.58
Courant Number mean: 0.362883 max: 0.703422
diagonal:  Solving for T, Initial residual = 0, Final residual = 0, No Iterations 0
diagonal:  Solving for T, Initial residual = 0, Final residual = 0, No Iterations 0
diagonal:  Solving for T, Initial residual = 0, Final residual = 0, No Iterations 0
diagonal:  Solving for T, Initial residual = 0, Final residual = 0, No Iterations 0
 T goes from min(T) [0 0 0 0 0 0 0] 9.30686e-21 to max(T) [0 0 0 0 0 0 0] 0.952432

ExecutionTime = 64.98 s  ClockTime = 1014 s

Time = 0.585
Courant Number mean: 0.36269 max: 0.702855
diagonal:  Solving for T, Initial residual = 0, Final residual = 0, No Iterations 0
diagonal:  Solving for T, Initial residual = 0, Final residual = 0, No Iterations 0
diagonal:  Solving for T, Initial residual = 0, Final residual = 0, No Iterations 0
diagonal:  Solving for T, Initial residual = 0, Final residual = 0, No Iterations 0
 T goes from min(T) [0 0 0 0 0 0 0] 8.81934e-21 to max(T) [0 0 0 0 0 0 0] 0.951806

ExecutionTime = 65.47 s  ClockTime = 1021 s

Time = 0.59
Courant Number mean: 0.362479 max: 0.702303
diagonal:  Solving for T, Initial residual = 0, Final residual = 0, No Iterations 0
diagonal:  Solving for T, Initial residual = 0, Final residual = 0, No Iterations 0
diagonal:  Solving for T, Initial residual = 0, Final residual = 0, No Iterations 0
diagonal:  Solving for T, Initial residual = 0, Final residual = 0, No Iterations 0
 T goes from min(T) [0 0 0 0 0 0 0] 8.60527e-21 to max(T) [0 0 0 0 0 0 0] 0.952932

ExecutionTime = 65.95 s  ClockTime = 1027 s

Time = 0.595
Courant Number mean: 0.362267 max: 0.701724
diagonal:  Solving for T, Initial residual = 0, Final residual = 0, No Iterations 0
diagonal:  Solving for T, Initial residual = 0, Final residual = 0, No Iterations 0
diagonal:  Solving for T, Initial residual = 0, Final residual = 0, No Iterations 0
diagonal:  Solving for T, Initial residual = 0, Final residual = 0, No Iterations 0
 T goes from min(T) [0 0 0 0 0 0 0] 8.75258e-21 to max(T) [0 0 0 0 0 0 0] 0.953013

ExecutionTime = 66.44 s  ClockTime = 1033 s

Time = 0.6
Courant Number mean: 0.362089 max: 0.701166
diagonal:  Solving for T, Initial residual = 0, Final residual = 0, No Iterations 0
diagonal:  Solving for T, Initial residual = 0, Final residual = 0, No Iterations 0
diagonal:  Solving for T, Initial residual = 0, Final residual = 0, No Iterations 0
diagonal:  Solving for T, Initial residual = 0, Final residual = 0, No Iterations 0
 T goes from min(T) [0 0 0 0 0 0 0] 9.26447e-21 to max(T) [0 0 0 0 0 0 0] 0.95333

ExecutionTime = 66.97 s  ClockTime = 1040 s

Time = 0.605
Courant Number mean: 0.361892 max: 0.700572
diagonal:  Solving for T, Initial residual = 0, Final residual = 0, No Iterations 0
diagonal:  Solving for T, Initial residual = 0, Final residual = 0, No Iterations 0
diagonal:  Solving for T, Initial residual = 0, Final residual = 0, No Iterations 0
diagonal:  Solving for T, Initial residual = 0, Final residual = 0, No Iterations 0
 T goes from min(T) [0 0 0 0 0 0 0] 8.91229e-21 to max(T) [0 0 0 0 0 0 0] 0.952757

ExecutionTime = 67.47 s  ClockTime = 1047 s

Time = 0.61
Courant Number mean: 0.361679 max: 0.70001
diagonal:  Solving for T, Initial residual = 0, Final residual = 0, No Iterations 0
diagonal:  Solving for T, Initial residual = 0, Final residual = 0, No Iterations 0
diagonal:  Solving for T, Initial residual = 0, Final residual = 0, No Iterations 0
diagonal:  Solving for T, Initial residual = 0, Final residual = 0, No Iterations 0
 T goes from min(T) [0 0 0 0 0 0 0] 8.65674e-21 to max(T) [0 0 0 0 0 0 0] 0.952319

ExecutionTime = 67.96 s  ClockTime = 1053 s

Time = 0.615
Courant Number mean: 0.361452 max: 0.699404
diagonal:  Solving for T, Initial residual = 0, Final residual = 0, No Iterations 0
diagonal:  Solving for T, Initial residual = 0, Final residual = 0, No Iterations 0
diagonal:  Solving for T, Initial residual = 0, Final residual = 0, No Iterations 0
diagonal:  Solving for T, Initial residual = 0, Final residual = 0, No Iterations 0
 T goes from min(T) [0 0 0 0 0 0 0] 8.76192e-21 to max(T) [0 0 0 0 0 0 0] 0.951286

ExecutionTime = 68.44 s  ClockTime = 1059 s

Time = 0.62
Courant Number mean: 0.361272 max: 0.698836
diagonal:  Solving for T, Initial residual = 0, Final residual = 0, No Iterations 0
diagonal:  Solving for T, Initial residual = 0, Final residual = 0, No Iterations 0
diagonal:  Solving for T, Initial residual = 0, Final residual = 0, No Iterations 0
diagonal:  Solving for T, Initial residual = 0, Final residual = 0, No Iterations 0
 T goes from min(T) [0 0 0 0 0 0 0] 9.23024e-21 to max(T) [0 0 0 0 0 0 0] 0.952445

ExecutionTime = 68.93 s  ClockTime = 1066 s

Time = 0.625
Courant Number mean: 0.361073 max: 0.698216
diagonal:  Solving for T, Initial residual = 0, Final residual = 0, No Iterations 0
diagonal:  Solving for T, Initial residual = 0, Final residual = 0, No Iterations 0
diagonal:  Solving for T, Initial residual = 0, Final residual = 0, No Iterations 0
diagonal:  Solving for T, Initial residual = 0, Final residual = 0, No Iterations 0
 T goes from min(T) [0 0 0 0 0 0 0] 9.01151e-21 to max(T) [0 0 0 0 0 0 0] 0.952826

ExecutionTime = 69.41 s  ClockTime = 1072 s

Time = 0.63
Courant Number mean: 0.360856 max: 0.697644
diagonal:  Solving for T, Initial residual = 0, Final residual = 0, No Iterations 0
diagonal:  Solving for T, Initial residual = 0, Final residual = 0, No Iterations 0
diagonal:  Solving for T, Initial residual = 0, Final residual = 0, No Iterations 0
diagonal:  Solving for T, Initial residual = 0, Final residual = 0, No Iterations 0
 T goes from min(T) [0 0 0 0 0 0 0] 8.71482e-21 to max(T) [0 0 0 0 0 0 0] 0.953123

ExecutionTime = 69.93 s  ClockTime = 1079 s

Time = 0.635
Courant Number mean: 0.360619 max: 0.697019
diagonal:  Solving for T, Initial residual = 0, Final residual = 0, No Iterations 0
diagonal:  Solving for T, Initial residual = 0, Final residual = 0, No Iterations 0
diagonal:  Solving for T, Initial residual = 0, Final residual = 0, No Iterations 0
diagonal:  Solving for T, Initial residual = 0, Final residual = 0, No Iterations 0
 T goes from min(T) [0 0 0 0 0 0 0] 8.77838e-21 to max(T) [0 0 0 0 0 0 0] 0.952846

ExecutionTime = 70.42 s  ClockTime = 1085 s

Time = 0.64
Courant Number mean: 0.360431 max: 0.696433
diagonal:  Solving for T, Initial residual = 0, Final residual = 0, No Iterations 0
diagonal:  Solving for T, Initial residual = 0, Final residual = 0, No Iterations 0
diagonal:  Solving for T, Initial residual = 0, Final residual = 0, No Iterations 0
diagonal:  Solving for T, Initial residual = 0, Final residual = 0, No Iterations 0
 T goes from min(T) [0 0 0 0 0 0 0] 9.20378e-21 to max(T) [0 0 0 0 0 0 0] 0.952328

ExecutionTime = 70.91 s  ClockTime = 1091 s

Time = 0.645
Courant Number mean: 0.36023 max: 0.695802
diagonal:  Solving for T, Initial residual = 0, Final residual = 0, No Iterations 0
diagonal:  Solving for T, Initial residual = 0, Final residual = 0, No Iterations 0
diagonal:  Solving for T, Initial residual = 0, Final residual = 0, No Iterations 0
diagonal:  Solving for T, Initial residual = 0, Final residual = 0, No Iterations 0
 T goes from min(T) [0 0 0 0 0 0 0] 9.11681e-21 to max(T) [0 0 0 0 0 0 0] 0.95154

ExecutionTime = 71.52 s  ClockTime = 1099 s

Time = 0.65
Courant Number mean: 0.36001 max: 0.695203
diagonal:  Solving for T, Initial residual = 0, Final residual = 0, No Iterations 0
diagonal:  Solving for T, Initial residual = 0, Final residual = 0, No Iterations 0
diagonal:  Solving for T, Initial residual = 0, Final residual = 0, No Iterations 0
diagonal:  Solving for T, Initial residual = 0, Final residual = 0, No Iterations 0
 T goes from min(T) [0 0 0 0 0 0 0] 8.77926e-21 to max(T) [0 0 0 0 0 0 0] 0.951271

ExecutionTime = 72.03 s  ClockTime = 1106 s

Time = 0.655
Courant Number mean: 0.35977 max: 0.694569
diagonal:  Solving for T, Initial residual = 0, Final residual = 0, No Iterations 0
diagonal:  Solving for T, Initial residual = 0, Final residual = 0, No Iterations 0
diagonal:  Solving for T, Initial residual = 0, Final residual = 0, No Iterations 0
diagonal:  Solving for T, Initial residual = 0, Final residual = 0, No Iterations 0
 T goes from min(T) [0 0 0 0 0 0 0] 8.80163e-21 to max(T) [0 0 0 0 0 0 0] 0.952084

ExecutionTime = 72.54 s  ClockTime = 1113 s

Time = 0.66
Courant Number mean: 0.359567 max: 0.693956
diagonal:  Solving for T, Initial residual = 0, Final residual = 0, No Iterations 0
diagonal:  Solving for T, Initial residual = 0, Final residual = 0, No Iterations 0
diagonal:  Solving for T, Initial residual = 0, Final residual = 0, No Iterations 0
diagonal:  Solving for T, Initial residual = 0, Final residual = 0, No Iterations 0
 T goes from min(T) [0 0 0 0 0 0 0] 9.18469e-21 to max(T) [0 0 0 0 0 0 0] 0.952744

ExecutionTime = 73.06 s  ClockTime = 1120 s

Time = 0.665
Courant Number mean: 0.359364 max: 0.693315
diagonal:  Solving for T, Initial residual = 0, Final residual = 0, No Iterations 0
diagonal:  Solving for T, Initial residual = 0, Final residual = 0, No Iterations 0
diagonal:  Solving for T, Initial residual = 0, Final residual = 0, No Iterations 0
diagonal:  Solving for T, Initial residual = 0, Final residual = 0, No Iterations 0
 T goes from min(T) [0 0 0 0 0 0 0] 9.22801e-21 to max(T) [0 0 0 0 0 0 0] 0.952636

ExecutionTime = 73.58 s  ClockTime = 1126 s

Time = 0.67
Courant Number mean: 0.359141 max: 0.69269
diagonal:  Solving for T, Initial residual = 0, Final residual = 0, No Iterations 0
diagonal:  Solving for T, Initial residual = 0, Final residual = 0, No Iterations 0
diagonal:  Solving for T, Initial residual = 0, Final residual = 0, No Iterations 0
diagonal:  Solving for T, Initial residual = 0, Final residual = 0, No Iterations 0
 T goes from min(T) [0 0 0 0 0 0 0] 8.84984e-21 to max(T) [0 0 0 0 0 0 0] 0.952633

ExecutionTime = 74.11 s  ClockTime = 1133 s

Time = 0.675
Courant Number mean: 0.3589 max: 0.692045
diagonal:  Solving for T, Initial residual = 0, Final residual = 0, No Iterations 0
diagonal:  Solving for T, Initial residual = 0, Final residual = 0, No Iterations 0
diagonal:  Solving for T, Initial residual = 0, Final residual = 0, No Iterations 0
diagonal:  Solving for T, Initial residual = 0, Final residual = 0, No Iterations 0
 T goes from min(T) [0 0 0 0 0 0 0] 8.8314e-21 to max(T) [0 0 0 0 0 0 0] 0.951895

ExecutionTime = 74.6 s  ClockTime = 1140 s

Time = 0.68
Courant Number mean: 0.358682 max: 0.691406
diagonal:  Solving for T, Initial residual = 0, Final residual = 0, No Iterations 0
diagonal:  Solving for T, Initial residual = 0, Final residual = 0, No Iterations 0
diagonal:  Solving for T, Initial residual = 0, Final residual = 0, No Iterations 0
diagonal:  Solving for T, Initial residual = 0, Final residual = 0, No Iterations 0
 T goes from min(T) [0 0 0 0 0 0 0] 9.17266e-21 to max(T) [0 0 0 0 0 0 0] 0.951143

ExecutionTime = 75.1 s  ClockTime = 1146 s

Time = 0.685
Courant Number mean: 0.358477 max: 0.690756
diagonal:  Solving for T, Initial residual = 0, Final residual = 0, No Iterations 0
diagonal:  Solving for T, Initial residual = 0, Final residual = 0, No Iterations 0
diagonal:  Solving for T, Initial residual = 0, Final residual = 0, No Iterations 0
diagonal:  Solving for T, Initial residual = 0, Final residual = 0, No Iterations 0
 T goes from min(T) [0 0 0 0 0 0 0] 9.34496e-21 to max(T) [0 0 0 0 0 0 0] 0.950064

ExecutionTime = 75.61 s  ClockTime = 1153 s

Time = 0.69
Courant Number mean: 0.358251 max: 0.690103
diagonal:  Solving for T, Initial residual = 0, Final residual = 0, No Iterations 0
diagonal:  Solving for T, Initial residual = 0, Final residual = 0, No Iterations 0
diagonal:  Solving for T, Initial residual = 0, Final residual = 0, No Iterations 0
diagonal:  Solving for T, Initial residual = 0, Final residual = 0, No Iterations 0
 T goes from min(T) [0 0 0 0 0 0 0] 8.92634e-21 to max(T) [0 0 0 0 0 0 0] 0.951276

ExecutionTime = 76.11 s  ClockTime = 1159 s

Time = 0.695
Courant Number mean: 0.358008 max: 0.689449
diagonal:  Solving for T, Initial residual = 0, Final residual = 0, No Iterations 0
diagonal:  Solving for T, Initial residual = 0, Final residual = 0, No Iterations 0
diagonal:  Solving for T, Initial residual = 0, Final residual = 0, No Iterations 0
diagonal:  Solving for T, Initial residual = 0, Final residual = 0, No Iterations 0
 T goes from min(T) [0 0 0 0 0 0 0] 8.86744e-21 to max(T) [0 0 0 0 0 0 0] 0.952106

ExecutionTime = 76.59 s  ClockTime = 1166 s

Time = 0.7
Courant Number mean: 0.357776 max: 0.688783
diagonal:  Solving for T, Initial residual = 0, Final residual = 0, No Iterations 0
diagonal:  Solving for T, Initial residual = 0, Final residual = 0, No Iterations 0
diagonal:  Solving for T, Initial residual = 0, Final residual = 0, No Iterations 0
diagonal:  Solving for T, Initial residual = 0, Final residual = 0, No Iterations 0
 T goes from min(T) [0 0 0 0 0 0 0] 9.16737e-21 to max(T) [0 0 0 0 0 0 0] 0.952369

ExecutionTime = 77.08 s  ClockTime = 1172 s

Time = 0.705
Courant Number mean: 0.357567 max: 0.688123
diagonal:  Solving for T, Initial residual = 0, Final residual = 0, No Iterations 0
diagonal:  Solving for T, Initial residual = 0, Final residual = 0, No Iterations 0
diagonal:  Solving for T, Initial residual = 0, Final residual = 0, No Iterations 0
diagonal:  Solving for T, Initial residual = 0, Final residual = 0, No Iterations 0
 T goes from min(T) [0 0 0 0 0 0 0] 9.46754e-21 to max(T) [0 0 0 0 0 0 0] 0.952444

ExecutionTime = 77.56 s  ClockTime = 1178 s

Time = 0.71
Courant Number mean: 0.357339 max: 0.687445
diagonal:  Solving for T, Initial residual = 0, Final residual = 0, No Iterations 0
diagonal:  Solving for T, Initial residual = 0, Final residual = 0, No Iterations 0
diagonal:  Solving for T, Initial residual = 0, Final residual = 0, No Iterations 0
diagonal:  Solving for T, Initial residual = 0, Final residual = 0, No Iterations 0
 T goes from min(T) [0 0 0 0 0 0 0] 9.0086e-21 to max(T) [0 0 0 0 0 0 0] 0.951856

ExecutionTime = 78.04 s  ClockTime = 1183 s

Time = 0.715
Courant Number mean: 0.357094 max: 0.68678
diagonal:  Solving for T, Initial residual = 0, Final residual = 0, No Iterations 0
diagonal:  Solving for T, Initial residual = 0, Final residual = 0, No Iterations 0
diagonal:  Solving for T, Initial residual = 0, Final residual = 0, No Iterations 0
diagonal:  Solving for T, Initial residual = 0, Final residual = 0, No Iterations 0
 T goes from min(T) [0 0 0 0 0 0 0] 8.90951e-21 to max(T) [0 0 0 0 0 0 0] 0.951287

ExecutionTime = 78.52 s  ClockTime = 1189 s

Time = 0.72
Courant Number mean: 0.356847 max: 0.686089
diagonal:  Solving for T, Initial residual = 0, Final residual = 0, No Iterations 0
diagonal:  Solving for T, Initial residual = 0, Final residual = 0, No Iterations 0
diagonal:  Solving for T, Initial residual = 0, Final residual = 0, No Iterations 0
diagonal:  Solving for T, Initial residual = 0, Final residual = 0, No Iterations 0
 T goes from min(T) [0 0 0 0 0 0 0] 9.16853e-21 to max(T) [0 0 0 0 0 0 0] 0.950221

ExecutionTime = 79.01 s  ClockTime = 1195 s

Time = 0.725
Courant Number mean: 0.356635 max: 0.685419
diagonal:  Solving for T, Initial residual = 0, Final residual = 0, No Iterations 0
diagonal:  Solving for T, Initial residual = 0, Final residual = 0, No Iterations 0
diagonal:  Solving for T, Initial residual = 0, Final residual = 0, No Iterations 0
diagonal:  Solving for T, Initial residual = 0, Final residual = 0, No Iterations 0
 T goes from min(T) [0 0 0 0 0 0 0] 9.59561e-21 to max(T) [0 0 0 0 0 0 0] 0.948842

ExecutionTime = 79.51 s  ClockTime = 1201 s

Time = 0.73
Courant Number mean: 0.356405 max: 0.684714
diagonal:  Solving for T, Initial residual = 0, Final residual = 0, No Iterations 0
diagonal:  Solving for T, Initial residual = 0, Final residual = 0, No Iterations 0
diagonal:  Solving for T, Initial residual = 0, Final residual = 0, No Iterations 0
diagonal:  Solving for T, Initial residual = 0, Final residual = 0, No Iterations 0
 T goes from min(T) [0 0 0 0 0 0 0] 9.09644e-21 to max(T) [0 0 0 0 0 0 0] 0.950243

ExecutionTime = 80.01 s  ClockTime = 1207 s

Time = 0.735
Courant Number mean: 0.356157 max: 0.68404
diagonal:  Solving for T, Initial residual = 0, Final residual = 0, No Iterations 0
diagonal:  Solving for T, Initial residual = 0, Final residual = 0, No Iterations 0
diagonal:  Solving for T, Initial residual = 0, Final residual = 0, No Iterations 0
diagonal:  Solving for T, Initial residual = 0, Final residual = 0, No Iterations 0
 T goes from min(T) [0 0 0 0 0 0 0] 8.9574e-21 to max(T) [0 0 0 0 0 0 0] 0.951314

ExecutionTime = 80.58 s  ClockTime = 1214 s

Time = 0.74
Courant Number mean: 0.355896 max: 0.683323
diagonal:  Solving for T, Initial residual = 0, Final residual = 0, No Iterations 0
diagonal:  Solving for T, Initial residual = 0, Final residual = 0, No Iterations 0
diagonal:  Solving for T, Initial residual = 0, Final residual = 0, No Iterations 0
diagonal:  Solving for T, Initial residual = 0, Final residual = 0, No Iterations 0
 T goes from min(T) [0 0 0 0 0 0 0] 9.17589e-21 to max(T) [0 0 0 0 0 0 0] 0.951848

ExecutionTime = 81.08 s  ClockTime = 1220 s

Time = 0.745
Courant Number mean: 0.355683 max: 0.682643
diagonal:  Solving for T, Initial residual = 0, Final residual = 0, No Iterations 0
diagonal:  Solving for T, Initial residual = 0, Final residual = 0, No Iterations 0
diagonal:  Solving for T, Initial residual = 0, Final residual = 0, No Iterations 0
diagonal:  Solving for T, Initial residual = 0, Final residual = 0, No Iterations 0
 T goes from min(T) [0 0 0 0 0 0 0] 9.72909e-21 to max(T) [0 0 0 0 0 0 0] 0.952028

ExecutionTime = 81.55 s  ClockTime = 1226 s

Time = 0.75
Courant Number mean: 0.35545 max: 0.681912
diagonal:  Solving for T, Initial residual = 0, Final residual = 0, No Iterations 0
diagonal:  Solving for T, Initial residual = 0, Final residual = 0, No Iterations 0
diagonal:  Solving for T, Initial residual = 0, Final residual = 0, No Iterations 0
diagonal:  Solving for T, Initial residual = 0, Final residual = 0, No Iterations 0
 T goes from min(T) [0 0 0 0 0 0 0] 9.18973e-21 to max(T) [0 0 0 0 0 0 0] 0.951614

ExecutionTime = 82.03 s  ClockTime = 1231 s

Time = 0.755
Courant Number mean: 0.3552 max: 0.681228
diagonal:  Solving for T, Initial residual = 0, Final residual = 0, No Iterations 0
diagonal:  Solving for T, Initial residual = 0, Final residual = 0, No Iterations 0
diagonal:  Solving for T, Initial residual = 0, Final residual = 0, No Iterations 0
diagonal:  Solving for T, Initial residual = 0, Final residual = 0, No Iterations 0
 T goes from min(T) [0 0 0 0 0 0 0] 9.01093e-21 to max(T) [0 0 0 0 0 0 0] 0.951098

ExecutionTime = 82.52 s  ClockTime = 1237 s

Time = 0.76
Courant Number mean: 0.354931 max: 0.680493
[...]
diagonal:  Solving for T, Initial residual = 0, Final residual = 0, No Iterations 0
 T goes from min(T) [0 0 0 0 0 0 0] -0.109086 to max(T) [0 0 0 0 0 0 0] 0.905425

ExecutionTime = 593.47 s  ClockTime = 4046 s

Time = 5.815
Courant Number mean: 0.352207 max: 0.672368
diagonal:  Solving for T, Initial residual = 0, Final residual = 0, No Iterations 0
diagonal:  Solving for T, Initial residual = 0, Final residual = 0, No Iterations 0
diagonal:  Solving for T, Initial residual = 0, Final residual = 0, No Iterations 0
diagonal:  Solving for T, Initial residual = 0, Final residual = 0, No Iterations 0
 T goes from min(T) [0 0 0 0 0 0 0] -0.107694 to max(T) [0 0 0 0 0 0 0] 0.904915

ExecutionTime = 593.99 s  ClockTime = 4048 s

Time = 5.82
Courant Number mean: 0.351932 max: 0.671605
diagonal:  Solving for T, Initial residual = 0, Final residual = 0, No Iterations 0
diagonal:  Solving for T, Initial residual = 0, Final residual = 0, No Iterations 0
diagonal:  Solving for T, Initial residual = 0, Final residual = 0, No Iterations 0
diagonal:  Solving for T, Initial residual = 0, Final residual = 0, No Iterations 0
 T goes from min(T) [0 0 0 0 0 0 0] -0.10785 to max(T) [0 0 0 0 0 0 0] 0.90427

ExecutionTime = 594.47 s  ClockTime = 4050 s

Time = 5.825
Courant Number mean: 0.351669 max: 0.670831
diagonal:  Solving for T, Initial residual = 0, Final residual = 0, No Iterations 0
diagonal:  Solving for T, Initial residual = 0, Final residual = 0, No Iterations 0
diagonal:  Solving for T, Initial residual = 0, Final residual = 0, No Iterations 0
diagonal:  Solving for T, Initial residual = 0, Final residual = 0, No Iterations 0
 T goes from min(T) [0 0 0 0 0 0 0] -0.108972 to max(T) [0 0 0 0 0 0 0] 0.903495

ExecutionTime = 594.96 s  ClockTime = 4052 s

Time = 5.83
Courant Number mean: 0.35143 max: 0.670062
diagonal:  Solving for T, Initial residual = 0, Final residual = 0, No Iterations 0
diagonal:  Solving for T, Initial residual = 0, Final residual = 0, No Iterations 0
diagonal:  Solving for T, Initial residual = 0, Final residual = 0, No Iterations 0
diagonal:  Solving for T, Initial residual = 0, Final residual = 0, No Iterations 0
 T goes from min(T) [0 0 0 0 0 0 0] -0.108721 to max(T) [0 0 0 0 0 0 0] 0.903812

ExecutionTime = 595.46 s  ClockTime = 4054 s

Time = 5.835
Courant Number mean: 0.351172 max: 0.669275
diagonal:  Solving for T, Initial residual = 0, Final residual = 0, No Iterations 0
diagonal:  Solving for T, Initial residual = 0, Final residual = 0, No Iterations 0
diagonal:  Solving for T, Initial residual = 0, Final residual = 0, No Iterations 0
diagonal:  Solving for T, Initial residual = 0, Final residual = 0, No Iterations 0
 T goes from min(T) [0 0 0 0 0 0 0] -0.107329 to max(T) [0 0 0 0 0 0 0] 0.904167

ExecutionTime = 595.94 s  ClockTime = 4056 s

Time = 5.84
Courant Number mean: 0.350897 max: 0.668502
diagonal:  Solving for T, Initial residual = 0, Final residual = 0, No Iterations 0
diagonal:  Solving for T, Initial residual = 0, Final residual = 0, No Iterations 0
diagonal:  Solving for T, Initial residual = 0, Final residual = 0, No Iterations 0
diagonal:  Solving for T, Initial residual = 0, Final residual = 0, No Iterations 0
 T goes from min(T) [0 0 0 0 0 0 0] -0.107747 to max(T) [0 0 0 0 0 0 0] 0.904337

ExecutionTime = 596.42 s  ClockTime = 4057 s

Time = 5.845
Courant Number mean: 0.350621 max: 0.667704
diagonal:  Solving for T, Initial residual = 0, Final residual = 0, No Iterations 0
diagonal:  Solving for T, Initial residual = 0, Final residual = 0, No Iterations 0
diagonal:  Solving for T, Initial residual = 0, Final residual = 0, No Iterations 0
diagonal:  Solving for T, Initial residual = 0, Final residual = 0, No Iterations 0
 T goes from min(T) [0 0 0 0 0 0 0] -0.108689 to max(T) [0 0 0 0 0 0 0] 0.904333

ExecutionTime = 596.91 s  ClockTime = 4059 s

Time = 5.85
Courant Number mean: 0.350379 max: 0.666925
diagonal:  Solving for T, Initial residual = 0, Final residual = 0, No Iterations 0
diagonal:  Solving for T, Initial residual = 0, Final residual = 0, No Iterations 0
diagonal:  Solving for T, Initial residual = 0, Final residual = 0, No Iterations 0
diagonal:  Solving for T, Initial residual = 0, Final residual = 0, No Iterations 0
 T goes from min(T) [0 0 0 0 0 0 0] -0.108388 to max(T) [0 0 0 0 0 0 0] 0.904165

ExecutionTime = 597.39 s  ClockTime = 4061 s

Time = 5.855
Courant Number mean: 0.35012 max: 0.666114
diagonal:  Solving for T, Initial residual = 0, Final residual = 0, No Iterations 0
diagonal:  Solving for T, Initial residual = 0, Final residual = 0, No Iterations 0
diagonal:  Solving for T, Initial residual = 0, Final residual = 0, No Iterations 0
diagonal:  Solving for T, Initial residual = 0, Final residual = 0, No Iterations 0
 T goes from min(T) [0 0 0 0 0 0 0] -0.107069 to max(T) [0 0 0 0 0 0 0] 0.903943

ExecutionTime = 597.94 s  ClockTime = 4064 s

Time = 5.86
Courant Number mean: 0.349843 max: 0.665331
diagonal:  Solving for T, Initial residual = 0, Final residual = 0, No Iterations 0
diagonal:  Solving for T, Initial residual = 0, Final residual = 0, No Iterations 0
diagonal:  Solving for T, Initial residual = 0, Final residual = 0, No Iterations 0
diagonal:  Solving for T, Initial residual = 0, Final residual = 0, No Iterations 0
 T goes from min(T) [0 0 0 0 0 0 0] -0.107538 to max(T) [0 0 0 0 0 0 0] 0.903599

ExecutionTime = 598.43 s  ClockTime = 4065 s

Time = 5.865
Courant Number mean: 0.349554 max: 0.664508
diagonal:  Solving for T, Initial residual = 0, Final residual = 0, No Iterations 0
diagonal:  Solving for T, Initial residual = 0, Final residual = 0, No Iterations 0
diagonal:  Solving for T, Initial residual = 0, Final residual = 0, No Iterations 0
diagonal:  Solving for T, Initial residual = 0, Final residual = 0, No Iterations 0
 T goes from min(T) [0 0 0 0 0 0 0] -0.108385 to max(T) [0 0 0 0 0 0 0] 0.903109

ExecutionTime = 598.93 s  ClockTime = 4067 s

Time = 5.87
Courant Number mean: 0.34931 max: 0.66372
diagonal:  Solving for T, Initial residual = 0, Final residual = 0, No Iterations 0
diagonal:  Solving for T, Initial residual = 0, Final residual = 0, No Iterations 0
diagonal:  Solving for T, Initial residual = 0, Final residual = 0, No Iterations 0
diagonal:  Solving for T, Initial residual = 0, Final residual = 0, No Iterations 0
 T goes from min(T) [0 0 0 0 0 0 0] -0.108106 to max(T) [0 0 0 0 0 0 0] 0.902481

ExecutionTime = 599.58 s  ClockTime = 4070 s

Time = 5.875
Courant Number mean: 0.34905 max: 0.662883
diagonal:  Solving for T, Initial residual = 0, Final residual = 0, No Iterations 0
diagonal:  Solving for T, Initial residual = 0, Final residual = 0, No Iterations 0
diagonal:  Solving for T, Initial residual = 0, Final residual = 0, No Iterations 0
diagonal:  Solving for T, Initial residual = 0, Final residual = 0, No Iterations 0
 T goes from min(T) [0 0 0 0 0 0 0] -0.107013 to max(T) [0 0 0 0 0 0 0] 0.901721

ExecutionTime = 600.06 s  ClockTime = 4072 s

Time = 5.88
Courant Number mean: 0.348771 max: 0.662091
diagonal:  Solving for T, Initial residual = 0, Final residual = 0, No Iterations 0
diagonal:  Solving for T, Initial residual = 0, Final residual = 0, No Iterations 0
diagonal:  Solving for T, Initial residual = 0, Final residual = 0, No Iterations 0
diagonal:  Solving for T, Initial residual = 0, Final residual = 0, No Iterations 0
 T goes from min(T) [0 0 0 0 0 0 0] -0.107258 to max(T) [0 0 0 0 0 0 0] 0.900836

ExecutionTime = 600.53 s  ClockTime = 4074 s

Time = 5.885
Courant Number mean: 0.348474 max: 0.661251
diagonal:  Solving for T, Initial residual = 0, Final residual = 0, No Iterations 0
diagonal:  Solving for T, Initial residual = 0, Final residual = 0, No Iterations 0
diagonal:  Solving for T, Initial residual = 0, Final residual = 0, No Iterations 0
diagonal:  Solving for T, Initial residual = 0, Final residual = 0, No Iterations 0
 T goes from min(T) [0 0 0 0 0 0 0] -0.108074 to max(T) [0 0 0 0 0 0 0] 0.901548

ExecutionTime = 601.01 s  ClockTime = 4076 s

Time = 5.89
Courant Number mean: 0.348224 max: 0.660446
diagonal:  Solving for T, Initial residual = 0, Final residual = 0, No Iterations 0
diagonal:  Solving for T, Initial residual = 0, Final residual = 0, No Iterations 0
diagonal:  Solving for T, Initial residual = 0, Final residual = 0, No Iterations 0
diagonal:  Solving for T, Initial residual = 0, Final residual = 0, No Iterations 0
 T goes from min(T) [0 0 0 0 0 0 0] -0.107878 to max(T) [0 0 0 0 0 0 0] 0.902092

ExecutionTime = 601.49 s  ClockTime = 4078 s

Time = 5.895
Courant Number mean: 0.347961 max: 0.659601
diagonal:  Solving for T, Initial residual = 0, Final residual = 0, No Iterations 0
diagonal:  Solving for T, Initial residual = 0, Final residual = 0, No Iterations 0
diagonal:  Solving for T, Initial residual = 0, Final residual = 0, No Iterations 0
diagonal:  Solving for T, Initial residual = 0, Final residual = 0, No Iterations 0
 T goes from min(T) [0 0 0 0 0 0 0] -0.107005 to max(T) [0 0 0 0 0 0 0] 0.902409

ExecutionTime = 602 s  ClockTime = 4080 s

Time = 5.9
Courant Number mean: 0.347681 max: 0.658784
diagonal:  Solving for T, Initial residual = 0, Final residual = 0, No Iterations 0
diagonal:  Solving for T, Initial residual = 0, Final residual = 0, No Iterations 0
diagonal:  Solving for T, Initial residual = 0, Final residual = 0, No Iterations 0
diagonal:  Solving for T, Initial residual = 0, Final residual = 0, No Iterations 0
 T goes from min(T) [0 0 0 0 0 0 0] -0.106915 to max(T) [0 0 0 0 0 0 0] 0.902513

ExecutionTime = 602.48 s  ClockTime = 4082 s

Time = 5.905
Courant Number mean: 0.347385 max: 0.657934
diagonal:  Solving for T, Initial residual = 0, Final residual = 0, No Iterations 0
diagonal:  Solving for T, Initial residual = 0, Final residual = 0, No Iterations 0
diagonal:  Solving for T, Initial residual = 0, Final residual = 0, No Iterations 0
diagonal:  Solving for T, Initial residual = 0, Final residual = 0, No Iterations 0
 T goes from min(T) [0 0 0 0 0 0 0] -0.107759 to max(T) [0 0 0 0 0 0 0] 0.902417

ExecutionTime = 602.97 s  ClockTime = 4084 s

Time = 5.91
Courant Number mean: 0.347121 max: 0.657105
diagonal:  Solving for T, Initial residual = 0, Final residual = 0, No Iterations 0
diagonal:  Solving for T, Initial residual = 0, Final residual = 0, No Iterations 0
diagonal:  Solving for T, Initial residual = 0, Final residual = 0, No Iterations 0
diagonal:  Solving for T, Initial residual = 0, Final residual = 0, No Iterations 0
 T goes from min(T) [0 0 0 0 0 0 0] -0.107693 to max(T) [0 0 0 0 0 0 0] 0.902301

ExecutionTime = 603.45 s  ClockTime = 4086 s

Time = 5.915
Courant Number mean: 0.346856 max: 0.65625
diagonal:  Solving for T, Initial residual = 0, Final residual = 0, No Iterations 0
diagonal:  Solving for T, Initial residual = 0, Final residual = 0, No Iterations 0
diagonal:  Solving for T, Initial residual = 0, Final residual = 0, No Iterations 0
diagonal:  Solving for T, Initial residual = 0, Final residual = 0, No Iterations 0
 T goes from min(T) [0 0 0 0 0 0 0] -0.107 to max(T) [0 0 0 0 0 0 0] 0.902017

ExecutionTime = 603.93 s  ClockTime = 4087 s

Time = 5.92
Courant Number mean: 0.346575 max: 0.655409
diagonal:  Solving for T, Initial residual = 0, Final residual = 0, No Iterations 0
diagonal:  Solving for T, Initial residual = 0, Final residual = 0, No Iterations 0
diagonal:  Solving for T, Initial residual = 0, Final residual = 0, No Iterations 0
diagonal:  Solving for T, Initial residual = 0, Final residual = 0, No Iterations 0
 T goes from min(T) [0 0 0 0 0 0 0] -0.10651 to max(T) [0 0 0 0 0 0 0] 0.901572

ExecutionTime = 604.42 s  ClockTime = 4089 s

Time = 5.925
Courant Number mean: 0.346278 max: 0.65455
diagonal:  Solving for T, Initial residual = 0, Final residual = 0, No Iterations 0
diagonal:  Solving for T, Initial residual = 0, Final residual = 0, No Iterations 0
diagonal:  Solving for T, Initial residual = 0, Final residual = 0, No Iterations 0
diagonal:  Solving for T, Initial residual = 0, Final residual = 0, No Iterations 0
 T goes from min(T) [0 0 0 0 0 0 0] -0.107427 to max(T) [0 0 0 0 0 0 0] 0.900976

ExecutionTime = 604.88 s  ClockTime = 4091 s

Time = 5.93
Courant Number mean: 0.346001 max: 0.653697
diagonal:  Solving for T, Initial residual = 0, Final residual = 0, No Iterations 0
diagonal:  Solving for T, Initial residual = 0, Final residual = 0, No Iterations 0
diagonal:  Solving for T, Initial residual = 0, Final residual = 0, No Iterations 0
diagonal:  Solving for T, Initial residual = 0, Final residual = 0, No Iterations 0
 T goes from min(T) [0 0 0 0 0 0 0] -0.107526 to max(T) [0 0 0 0 0 0 0] 0.900239

ExecutionTime = 605.33 s  ClockTime = 4093 s

Time = 5.935
Courant Number mean: 0.345736 max: 0.652833
diagonal:  Solving for T, Initial residual = 0, Final residual = 0, No Iterations 0
diagonal:  Solving for T, Initial residual = 0, Final residual = 0, No Iterations 0
diagonal:  Solving for T, Initial residual = 0, Final residual = 0, No Iterations 0
diagonal:  Solving for T, Initial residual = 0, Final residual = 0, No Iterations 0
 T goes from min(T) [0 0 0 0 0 0 0] -0.106975 to max(T) [0 0 0 0 0 0 0] 0.899369

ExecutionTime = 605.84 s  ClockTime = 4095 s

Time = 5.94
Courant Number mean: 0.345454 max: 0.651967
diagonal:  Solving for T, Initial residual = 0, Final residual = 0, No Iterations 0
diagonal:  Solving for T, Initial residual = 0, Final residual = 0, No Iterations 0
diagonal:  Solving for T, Initial residual = 0, Final residual = 0, No Iterations 0
diagonal:  Solving for T, Initial residual = 0, Final residual = 0, No Iterations 0
 T goes from min(T) [0 0 0 0 0 0 0] -0.106029 to max(T) [0 0 0 0 0 0 0] 0.898375

ExecutionTime = 606.35 s  ClockTime = 4097 s

Time = 5.945
Courant Number mean: 0.345155 max: 0.6511
diagonal:  Solving for T, Initial residual = 0, Final residual = 0, No Iterations 0
diagonal:  Solving for T, Initial residual = 0, Final residual = 0, No Iterations 0
diagonal:  Solving for T, Initial residual = 0, Final residual = 0, No Iterations 0
diagonal:  Solving for T, Initial residual = 0, Final residual = 0, No Iterations 0
 T goes from min(T) [0 0 0 0 0 0 0] -0.107053 to max(T) [0 0 0 0 0 0 0] 0.897265

ExecutionTime = 606.84 s  ClockTime = 4099 s

Time = 5.95
Courant Number mean: 0.344867 max: 0.650222
diagonal:  Solving for T, Initial residual = 0, Final residual = 0, No Iterations 0
diagonal:  Solving for T, Initial residual = 0, Final residual = 0, No Iterations 0
diagonal:  Solving for T, Initial residual = 0, Final residual = 0, No Iterations 0
diagonal:  Solving for T, Initial residual = 0, Final residual = 0, No Iterations 0
 T goes from min(T) [0 0 0 0 0 0 0] -0.107336 to max(T) [0 0 0 0 0 0 0] 0.898267

ExecutionTime = 607.34 s  ClockTime = 4101 s

Time = 5.955
Courant Number mean: 0.344602 max: 0.649349
diagonal:  Solving for T, Initial residual = 0, Final residual = 0, No Iterations 0
diagonal:  Solving for T, Initial residual = 0, Final residual = 0, No Iterations 0
diagonal:  Solving for T, Initial residual = 0, Final residual = 0, No Iterations 0
diagonal:  Solving for T, Initial residual = 0, Final residual = 0, No Iterations 0
 T goes from min(T) [0 0 0 0 0 0 0] -0.107029 to max(T) [0 0 0 0 0 0 0] 0.899185

ExecutionTime = 607.83 s  ClockTime = 4103 s

Time = 5.96
Courant Number mean: 0.34432 max: 0.648459
diagonal:  Solving for T, Initial residual = 0, Final residual = 0, No Iterations 0
diagonal:  Solving for T, Initial residual = 0, Final residual = 0, No Iterations 0
diagonal:  Solving for T, Initial residual = 0, Final residual = 0, No Iterations 0
diagonal:  Solving for T, Initial residual = 0, Final residual = 0, No Iterations 0
 T goes from min(T) [0 0 0 0 0 0 0] -0.106271 to max(T) [0 0 0 0 0 0 0] 0.899808

ExecutionTime = 608.32 s  ClockTime = 4105 s

Time = 5.965
Courant Number mean: 0.34402 max: 0.647583
diagonal:  Solving for T, Initial residual = 0, Final residual = 0, No Iterations 0
diagonal:  Solving for T, Initial residual = 0, Final residual = 0, No Iterations 0
diagonal:  Solving for T, Initial residual = 0, Final residual = 0, No Iterations 0
diagonal:  Solving for T, Initial residual = 0, Final residual = 0, No Iterations 0
 T goes from min(T) [0 0 0 0 0 0 0] -0.106598 to max(T) [0 0 0 0 0 0 0] 0.900153

ExecutionTime = 608.79 s  ClockTime = 4107 s

Time = 5.97
Courant Number mean: 0.343722 max: 0.646681
diagonal:  Solving for T, Initial residual = 0, Final residual = 0, No Iterations 0
diagonal:  Solving for T, Initial residual = 0, Final residual = 0, No Iterations 0
diagonal:  Solving for T, Initial residual = 0, Final residual = 0, No Iterations 0
diagonal:  Solving for T, Initial residual = 0, Final residual = 0, No Iterations 0
 T goes from min(T) [0 0 0 0 0 0 0] -0.107069 to max(T) [0 0 0 0 0 0 0] 0.900238

ExecutionTime = 609.28 s  ClockTime = 4109 s

Time = 5.975
Courant Number mean: 0.343454 max: 0.6458
diagonal:  Solving for T, Initial residual = 0, Final residual = 0, No Iterations 0
diagonal:  Solving for T, Initial residual = 0, Final residual = 0, No Iterations 0
diagonal:  Solving for T, Initial residual = 0, Final residual = 0, No Iterations 0
diagonal:  Solving for T, Initial residual = 0, Final residual = 0, No Iterations 0
 T goes from min(T) [0 0 0 0 0 0 0] -0.106995 to max(T) [0 0 0 0 0 0 0] 0.900171

ExecutionTime = 609.79 s  ClockTime = 4111 s

Time = 5.98
Courant Number mean: 0.34317 max: 0.644886
diagonal:  Solving for T, Initial residual = 0, Final residual = 0, No Iterations 0
diagonal:  Solving for T, Initial residual = 0, Final residual = 0, No Iterations 0
diagonal:  Solving for T, Initial residual = 0, Final residual = 0, No Iterations 0
diagonal:  Solving for T, Initial residual = 0, Final residual = 0, No Iterations 0
 T goes from min(T) [0 0 0 0 0 0 0] -0.106494 to max(T) [0 0 0 0 0 0 0] 0.899933

ExecutionTime = 610.27 s  ClockTime = 4113 s

Time = 5.985
Courant Number mean: 0.342872 max: 0.644
diagonal:  Solving for T, Initial residual = 0, Final residual = 0, No Iterations 0
diagonal:  Solving for T, Initial residual = 0, Final residual = 0, No Iterations 0
diagonal:  Solving for T, Initial residual = 0, Final residual = 0, No Iterations 0
diagonal:  Solving for T, Initial residual = 0, Final residual = 0, No Iterations 0
 T goes from min(T) [0 0 0 0 0 0 0] -0.106007 to max(T) [0 0 0 0 0 0 0] 0.899498

ExecutionTime = 610.75 s  ClockTime = 4115 s

Time = 5.99
Courant Number mean: 0.342561 max: 0.643076
diagonal:  Solving for T, Initial residual = 0, Final residual = 0, No Iterations 0
diagonal:  Solving for T, Initial residual = 0, Final residual = 0, No Iterations 0
diagonal:  Solving for T, Initial residual = 0, Final residual = 0, No Iterations 0
diagonal:  Solving for T, Initial residual = 0, Final residual = 0, No Iterations 0
 T goes from min(T) [0 0 0 0 0 0 0] -0.106657 to max(T) [0 0 0 0 0 0 0] 0.89888

ExecutionTime = 611.23 s  ClockTime = 4117 s

Time = 5.995
Courant Number mean: 0.342293 max: 0.642185
diagonal:  Solving for T, Initial residual = 0, Final residual = 0, No Iterations 0
diagonal:  Solving for T, Initial residual = 0, Final residual = 0, No Iterations 0
diagonal:  Solving for T, Initial residual = 0, Final residual = 0, No Iterations 0
diagonal:  Solving for T, Initial residual = 0, Final residual = 0, No Iterations 0
 T goes from min(T) [0 0 0 0 0 0 0] -0.106791 to max(T) [0 0 0 0 0 0 0] 0.898092

ExecutionTime = 611.71 s  ClockTime = 4119 s

Time = 6
Courant Number mean: 0.342009 max: 0.641248
diagonal:  Solving for T, Initial residual = 0, Final residual = 0, No Iterations 0
diagonal:  Solving for T, Initial residual = 0, Final residual = 0, No Iterations 0
diagonal:  Solving for T, Initial residual = 0, Final residual = 0, No Iterations 0
diagonal:  Solving for T, Initial residual = 0, Final residual = 0, No Iterations 0
 T goes from min(T) [0 0 0 0 0 0 0] -0.106506 to max(T) [0 0 0 0 0 0 0] 0.897145

ExecutionTime = 612.19 s  ClockTime = 4121 s

End

