/*---------------------------------------------------------------------------*\
  =========                 |
  \\      /  F ield         | OpenFOAM: The Open Source CFD Toolbox
   \\    /   O peration     | Website:  https://openfoam.org
    \\  /    A nd           | Version:  7
     \\/     M anipulation  |
\*---------------------------------------------------------------------------*/
Build  : 7-1ff648926f77
Exec   : scalarDeformationWithGhosts explicit
Date   : Aug 21 2020
Time   : 10:26:29
Host   : "cullen"
PID    : 14858
I/O    : uncollated
Case   : /home/hilary/OpenFOAM/hilary-7/run/multiDadvectCases/deformingAdvectionCyclic/orthogonal/240x120/c1_explicit
nProcs : 1
sigFpe : Enabling floating point exception trapping (FOAM_SIGFPE).
fileModificationChecking : Monitoring run-time modified files using timeStampMaster (fileModificationSkew 10)
allowSystemOperations : Allowing user-supplied system call operations

// * * * * * * * * * * * * * * * * * * * * * * * * * * * * * * * * * * * * * //
Create time

--> FOAM Warning : 
    From function void* Foam::dlOpen(const Foam::fileName&, bool)
    in file POSIX.C at line 1251
    dlopen error : libfiniteVolumeAtmos.so: cannot open shared object file: No such file or directory
--> FOAM Warning : 
    From function bool Foam::dlLibraryTable::open(const Foam::fileName&, bool)
    in file db/dynamicLibrary/dlLibraryTable/dlLibraryTable.C at line 105
    could not load "libfiniteVolumeAtmos.so"
Create mesh for time = 0

Reading field T

Reading fields phi (compulsory), U and Uf (optional)

Calculating owner stencils
Calculating neighbour stencils

Calculating scalar transport

Courant Number mean: 0.374536 max: 0.735969
Time = 0.005
Courant Number mean: 0.374526 max: 0.735995
diagonal:  Solving for T, Initial residual = 0, Final residual = 0, No Iterations 0
diagonal:  Solving for T, Initial residual = 0, Final residual = 0, No Iterations 0
diagonal:  Solving for T, Initial residual = 0, Final residual = 0, No Iterations 0
diagonal:  Solving for T, Initial residual = 0, Final residual = 0, No Iterations 0
 T goes from min(T) [0 0 0 0 0 0 0] 8.6126e-21 to max(T) [0 0 0 0 0 0 0] 0.953917

ExecutionTime = 7.31 s  ClockTime = 7 s

Time = 0.01
Courant Number mean: 0.374494 max: 0.735965
diagonal:  Solving for T, Initial residual = 0, Final residual = 0, No Iterations 0
diagonal:  Solving for T, Initial residual = 0, Final residual = 0, No Iterations 0
diagonal:  Solving for T, Initial residual = 0, Final residual = 0, No Iterations 0
diagonal:  Solving for T, Initial residual = 0, Final residual = 0, No Iterations 0
 T goes from min(T) [0 0 0 0 0 0 0] 8.38374e-21 to max(T) [0 0 0 0 0 0 0] 0.953879

ExecutionTime = 7.93 s  ClockTime = 8 s

Time = 0.015
Courant Number mean: 0.374515 max: 0.735975
diagonal:  Solving for T, Initial residual = 0, Final residual = 0, No Iterations 0
diagonal:  Solving for T, Initial residual = 0, Final residual = 0, No Iterations 0
diagonal:  Solving for T, Initial residual = 0, Final residual = 0, No Iterations 0
diagonal:  Solving for T, Initial residual = 0, Final residual = 0, No Iterations 0
 T goes from min(T) [0 0 0 0 0 0 0] 8.70808e-21 to max(T) [0 0 0 0 0 0 0] 0.953282

ExecutionTime = 8.55 s  ClockTime = 8 s

Time = 0.02
Courant Number mean: 0.374521 max: 0.735938
diagonal:  Solving for T, Initial residual = 0, Final residual = 0, No Iterations 0
diagonal:  Solving for T, Initial residual = 0, Final residual = 0, No Iterations 0
diagonal:  Solving for T, Initial residual = 0, Final residual = 0, No Iterations 0
diagonal:  Solving for T, Initial residual = 0, Final residual = 0, No Iterations 0
 T goes from min(T) [0 0 0 0 0 0 0] 9.56043e-21 to max(T) [0 0 0 0 0 0 0] 0.953648

ExecutionTime = 9.17 s  ClockTime = 9 s

Time = 0.025
Courant Number mean: 0.374508 max: 0.735935
diagonal:  Solving for T, Initial residual = 0, Final residual = 0, No Iterations 0
diagonal:  Solving for T, Initial residual = 0, Final residual = 0, No Iterations 0
diagonal:  Solving for T, Initial residual = 0, Final residual = 0, No Iterations 0
diagonal:  Solving for T, Initial residual = 0, Final residual = 0, No Iterations 0
 T goes from min(T) [0 0 0 0 0 0 0] 8.99135e-21 to max(T) [0 0 0 0 0 0 0] 0.953898

ExecutionTime = 9.79 s  ClockTime = 10 s

Time = 0.03
Courant Number mean: 0.374471 max: 0.735894
diagonal:  Solving for T, Initial residual = 0, Final residual = 0, No Iterations 0
diagonal:  Solving for T, Initial residual = 0, Final residual = 0, No Iterations 0
diagonal:  Solving for T, Initial residual = 0, Final residual = 0, No Iterations 0
diagonal:  Solving for T, Initial residual = 0, Final residual = 0, No Iterations 0
 T goes from min(T) [0 0 0 0 0 0 0] 8.69944e-21 to max(T) [0 0 0 0 0 0 0] 0.953247

ExecutionTime = 10.41 s  ClockTime = 10 s

Time = 0.035
Courant Number mean: 0.374476 max: 0.735876
diagonal:  Solving for T, Initial residual = 0, Final residual = 0, No Iterations 0
diagonal:  Solving for T, Initial residual = 0, Final residual = 0, No Iterations 0
diagonal:  Solving for T, Initial residual = 0, Final residual = 0, No Iterations 0
diagonal:  Solving for T, Initial residual = 0, Final residual = 0, No Iterations 0
 T goes from min(T) [0 0 0 0 0 0 0] 8.93767e-21 to max(T) [0 0 0 0 0 0 0] 0.953926

ExecutionTime = 11.03 s  ClockTime = 11 s

Time = 0.04
Courant Number mean: 0.374478 max: 0.735828
diagonal:  Solving for T, Initial residual = 0, Final residual = 0, No Iterations 0
diagonal:  Solving for T, Initial residual = 0, Final residual = 0, No Iterations 0
diagonal:  Solving for T, Initial residual = 0, Final residual = 0, No Iterations 0
diagonal:  Solving for T, Initial residual = 0, Final residual = 0, No Iterations 0
 T goes from min(T) [0 0 0 0 0 0 0] 9.69672e-21 to max(T) [0 0 0 0 0 0 0] 0.953782

ExecutionTime = 11.65 s  ClockTime = 12 s

Time = 0.045
Courant Number mean: 0.37446 max: 0.735796
diagonal:  Solving for T, Initial residual = 0, Final residual = 0, No Iterations 0
diagonal:  Solving for T, Initial residual = 0, Final residual = 0, No Iterations 0
diagonal:  Solving for T, Initial residual = 0, Final residual = 0, No Iterations 0
diagonal:  Solving for T, Initial residual = 0, Final residual = 0, No Iterations 0
 T goes from min(T) [0 0 0 0 0 0 0] 9.24148e-21 to max(T) [0 0 0 0 0 0 0] 0.953249

ExecutionTime = 12.26 s  ClockTime = 12 s

Time = 0.05
Courant Number mean: 0.37442 max: 0.735743
diagonal:  Solving for T, Initial residual = 0, Final residual = 0, No Iterations 0
diagonal:  Solving for T, Initial residual = 0, Final residual = 0, No Iterations 0
diagonal:  Solving for T, Initial residual = 0, Final residual = 0, No Iterations 0
diagonal:  Solving for T, Initial residual = 0, Final residual = 0, No Iterations 0
 T goes from min(T) [0 0 0 0 0 0 0] 8.91674e-21 to max(T) [0 0 0 0 0 0 0] 0.953848

ExecutionTime = 12.88 s  ClockTime = 13 s

Time = 0.055
Courant Number mean: 0.374407 max: 0.735696
diagonal:  Solving for T, Initial residual = 0, Final residual = 0, No Iterations 0
diagonal:  Solving for T, Initial residual = 0, Final residual = 0, No Iterations 0
diagonal:  Solving for T, Initial residual = 0, Final residual = 0, No Iterations 0
diagonal:  Solving for T, Initial residual = 0, Final residual = 0, No Iterations 0
 T goes from min(T) [0 0 0 0 0 0 0] 9.10517e-21 to max(T) [0 0 0 0 0 0 0] 0.95405

ExecutionTime = 13.49 s  ClockTime = 13 s

Time = 0.06
Courant Number mean: 0.374406 max: 0.735638
diagonal:  Solving for T, Initial residual = 0, Final residual = 0, No Iterations 0
diagonal:  Solving for T, Initial residual = 0, Final residual = 0, No Iterations 0
diagonal:  Solving for T, Initial residual = 0, Final residual = 0, No Iterations 0
diagonal:  Solving for T, Initial residual = 0, Final residual = 0, No Iterations 0
 T goes from min(T) [0 0 0 0 0 0 0] 9.80488e-21 to max(T) [0 0 0 0 0 0 0] 0.953311

ExecutionTime = 14.11 s  ClockTime = 14 s

Time = 0.065
Courant Number mean: 0.374383 max: 0.735576
diagonal:  Solving for T, Initial residual = 0, Final residual = 0, No Iterations 0
diagonal:  Solving for T, Initial residual = 0, Final residual = 0, No Iterations 0
diagonal:  Solving for T, Initial residual = 0, Final residual = 0, No Iterations 0
diagonal:  Solving for T, Initial residual = 0, Final residual = 0, No Iterations 0
 T goes from min(T) [0 0 0 0 0 0 0] 9.4568e-21 to max(T) [0 0 0 0 0 0 0] 0.95348

ExecutionTime = 14.73 s  ClockTime = 15 s

Time = 0.07
Courant Number mean: 0.37434 max: 0.735513
diagonal:  Solving for T, Initial residual = 0, Final residual = 0, No Iterations 0
diagonal:  Solving for T, Initial residual = 0, Final residual = 0, No Iterations 0
diagonal:  Solving for T, Initial residual = 0, Final residual = 0, No Iterations 0
diagonal:  Solving for T, Initial residual = 0, Final residual = 0, No Iterations 0
 T goes from min(T) [0 0 0 0 0 0 0] 9.10114e-21 to max(T) [0 0 0 0 0 0 0] 0.953987

ExecutionTime = 15.36 s  ClockTime = 15 s

Time = 0.075
Courant Number mean: 0.374309 max: 0.735437
diagonal:  Solving for T, Initial residual = 0, Final residual = 0, No Iterations 0
diagonal:  Solving for T, Initial residual = 0, Final residual = 0, No Iterations 0
diagonal:  Solving for T, Initial residual = 0, Final residual = 0, No Iterations 0
diagonal:  Solving for T, Initial residual = 0, Final residual = 0, No Iterations 0
 T goes from min(T) [0 0 0 0 0 0 0] 9.24841e-21 to max(T) [0 0 0 0 0 0 0] 0.95357

ExecutionTime = 15.98 s  ClockTime = 16 s

Time = 0.08
Courant Number mean: 0.374304 max: 0.735368
diagonal:  Solving for T, Initial residual = 0, Final residual = 0, No Iterations 0
diagonal:  Solving for T, Initial residual = 0, Final residual = 0, No Iterations 0
diagonal:  Solving for T, Initial residual = 0, Final residual = 0, No Iterations 0
diagonal:  Solving for T, Initial residual = 0, Final residual = 0, No Iterations 0
 T goes from min(T) [0 0 0 0 0 0 0] 9.90026e-21 to max(T) [0 0 0 0 0 0 0] 0.953585

ExecutionTime = 16.6 s  ClockTime = 16 s

Time = 0.085
Courant Number mean: 0.374278 max: 0.735277
diagonal:  Solving for T, Initial residual = 0, Final residual = 0, No Iterations 0
diagonal:  Solving for T, Initial residual = 0, Final residual = 0, No Iterations 0
diagonal:  Solving for T, Initial residual = 0, Final residual = 0, No Iterations 0
diagonal:  Solving for T, Initial residual = 0, Final residual = 0, No Iterations 0
 T goes from min(T) [0 0 0 0 0 0 0] 9.65575e-21 to max(T) [0 0 0 0 0 0 0] 0.953662

ExecutionTime = 17.28 s  ClockTime = 17 s

Time = 0.09
Courant Number mean: 0.374231 max: 0.735203
diagonal:  Solving for T, Initial residual = 0, Final residual = 0, No Iterations 0
diagonal:  Solving for T, Initial residual = 0, Final residual = 0, No Iterations 0
diagonal:  Solving for T, Initial residual = 0, Final residual = 0, No Iterations 0
diagonal:  Solving for T, Initial residual = 0, Final residual = 0, No Iterations 0
 T goes from min(T) [0 0 0 0 0 0 0] 9.26963e-21 to max(T) [0 0 0 0 0 0 0] 0.953531

ExecutionTime = 17.9 s  ClockTime = 18 s

Time = 0.095
Courant Number mean: 0.374182 max: 0.735099
diagonal:  Solving for T, Initial residual = 0, Final residual = 0, No Iterations 0
diagonal:  Solving for T, Initial residual = 0, Final residual = 0, No Iterations 0
diagonal:  Solving for T, Initial residual = 0, Final residual = 0, No Iterations 0
diagonal:  Solving for T, Initial residual = 0, Final residual = 0, No Iterations 0
 T goes from min(T) [0 0 0 0 0 0 0] 9.37956e-21 to max(T) [0 0 0 0 0 0 0] 0.953631

ExecutionTime = 18.53 s  ClockTime = 18 s

Time = 0.1
Courant Number mean: 0.374173 max: 0.735018
diagonal:  Solving for T, Initial residual = 0, Final residual = 0, No Iterations 0
diagonal:  Solving for T, Initial residual = 0, Final residual = 0, No Iterations 0
diagonal:  Solving for T, Initial residual = 0, Final residual = 0, No Iterations 0
diagonal:  Solving for T, Initial residual = 0, Final residual = 0, No Iterations 0
 T goes from min(T) [0 0 0 0 0 0 0] 9.98916e-21 to max(T) [0 0 0 0 0 0 0] 0.95391

ExecutionTime = 19.15 s  ClockTime = 19 s

Time = 0.105
Courant Number mean: 0.374143 max: 0.734899
diagonal:  Solving for T, Initial residual = 0, Final residual = 0, No Iterations 0
diagonal:  Solving for T, Initial residual = 0, Final residual = 0, No Iterations 0
diagonal:  Solving for T, Initial residual = 0, Final residual = 0, No Iterations 0
diagonal:  Solving for T, Initial residual = 0, Final residual = 0, No Iterations 0
 T goes from min(T) [0 0 0 0 0 0 0] 9.84556e-21 to max(T) [0 0 0 0 0 0 0] 0.953267

ExecutionTime = 19.76 s  ClockTime = 20 s

Time = 0.11
Courant Number mean: 0.374092 max: 0.734813
diagonal:  Solving for T, Initial residual = 0, Final residual = 0, No Iterations 0
diagonal:  Solving for T, Initial residual = 0, Final residual = 0, No Iterations 0
diagonal:  Solving for T, Initial residual = 0, Final residual = 0, No Iterations 0
diagonal:  Solving for T, Initial residual = 0, Final residual = 0, No Iterations 0
 T goes from min(T) [0 0 0 0 0 0 0] 9.42927e-21 to max(T) [0 0 0 0 0 0 0] 0.953748

ExecutionTime = 20.38 s  ClockTime = 20 s

Time = 0.115
Courant Number mean: 0.374027 max: 0.73468
diagonal:  Solving for T, Initial residual = 0, Final residual = 0, No Iterations 0
diagonal:  Solving for T, Initial residual = 0, Final residual = 0, No Iterations 0
diagonal:  Solving for T, Initial residual = 0, Final residual = 0, No Iterations 0
diagonal:  Solving for T, Initial residual = 0, Final residual = 0, No Iterations 0
 T goes from min(T) [0 0 0 0 0 0 0] 9.504e-21 to max(T) [0 0 0 0 0 0 0] 0.953921

ExecutionTime = 21 s  ClockTime = 21 s

Time = 0.12
Courant Number mean: 0.374014 max: 0.734589
diagonal:  Solving for T, Initial residual = 0, Final residual = 0, No Iterations 0
diagonal:  Solving for T, Initial residual = 0, Final residual = 0, No Iterations 0
diagonal:  Solving for T, Initial residual = 0, Final residual = 0, No Iterations 0
diagonal:  Solving for T, Initial residual = 0, Final residual = 0, No Iterations 0
 T goes from min(T) [0 0 0 0 0 0 0] 1.00746e-20 to max(T) [0 0 0 0 0 0 0] 0.953658

ExecutionTime = 21.61 s  ClockTime = 21 s

Time = 0.125
Courant Number mean: 0.37398 max: 0.73444
diagonal:  Solving for T, Initial residual = 0, Final residual = 0, No Iterations 0
diagonal:  Solving for T, Initial residual = 0, Final residual = 0, No Iterations 0
diagonal:  Solving for T, Initial residual = 0, Final residual = 0, No Iterations 0
diagonal:  Solving for T, Initial residual = 0, Final residual = 0, No Iterations 0
 T goes from min(T) [0 0 0 0 0 0 0] 1.00299e-20 to max(T) [0 0 0 0 0 0 0] 0.953694

ExecutionTime = 22.23 s  ClockTime = 22 s

Time = 0.13
Courant Number mean: 0.373925 max: 0.734344
diagonal:  Solving for T, Initial residual = 0, Final residual = 0, No Iterations 0
diagonal:  Solving for T, Initial residual = 0, Final residual = 0, No Iterations 0
diagonal:  Solving for T, Initial residual = 0, Final residual = 0, No Iterations 0
diagonal:  Solving for T, Initial residual = 0, Final residual = 0, No Iterations 0
 T goes from min(T) [0 0 0 0 0 0 0] 9.58364e-21 to max(T) [0 0 0 0 0 0 0] 0.954104

ExecutionTime = 22.84 s  ClockTime = 23 s

Time = 0.135
Courant Number mean: 0.373849 max: 0.734191
diagonal:  Solving for T, Initial residual = 0, Final residual = 0, No Iterations 0
diagonal:  Solving for T, Initial residual = 0, Final residual = 0, No Iterations 0
diagonal:  Solving for T, Initial residual = 0, Final residual = 0, No Iterations 0
diagonal:  Solving for T, Initial residual = 0, Final residual = 0, No Iterations 0
 T goes from min(T) [0 0 0 0 0 0 0] 9.62456e-21 to max(T) [0 0 0 0 0 0 0] 0.953716

ExecutionTime = 23.46 s  ClockTime = 23 s

Time = 0.14
Courant Number mean: 0.373826 max: 0.73408
diagonal:  Solving for T, Initial residual = 0, Final residual = 0, No Iterations 0
diagonal:  Solving for T, Initial residual = 0, Final residual = 0, No Iterations 0
diagonal:  Solving for T, Initial residual = 0, Final residual = 0, No Iterations 0
diagonal:  Solving for T, Initial residual = 0, Final residual = 0, No Iterations 0
 T goes from min(T) [0 0 0 0 0 0 0] 1.01583e-20 to max(T) [0 0 0 0 0 0 0] 0.953514

ExecutionTime = 24.08 s  ClockTime = 24 s

Time = 0.145
Courant Number mean: 0.373788 max: 0.733921
diagonal:  Solving for T, Initial residual = 0, Final residual = 0, No Iterations 0
diagonal:  Solving for T, Initial residual = 0, Final residual = 0, No Iterations 0
diagonal:  Solving for T, Initial residual = 0, Final residual = 0, No Iterations 0
diagonal:  Solving for T, Initial residual = 0, Final residual = 0, No Iterations 0
 T goes from min(T) [0 0 0 0 0 0 0] 1.02108e-20 to max(T) [0 0 0 0 0 0 0] 0.954141

ExecutionTime = 24.71 s  ClockTime = 25 s

Time = 0.15
Courant Number mean: 0.373729 max: 0.733795
diagonal:  Solving for T, Initial residual = 0, Final residual = 0, No Iterations 0
diagonal:  Solving for T, Initial residual = 0, Final residual = 0, No Iterations 0
diagonal:  Solving for T, Initial residual = 0, Final residual = 0, No Iterations 0
diagonal:  Solving for T, Initial residual = 0, Final residual = 0, No Iterations 0
 T goes from min(T) [0 0 0 0 0 0 0] 9.7348e-21 to max(T) [0 0 0 0 0 0 0] 0.953987

ExecutionTime = 25.34 s  ClockTime = 25 s

Time = 0.155
Courant Number mean: 0.37365 max: 0.733632
diagonal:  Solving for T, Initial residual = 0, Final residual = 0, No Iterations 0
diagonal:  Solving for T, Initial residual = 0, Final residual = 0, No Iterations 0
diagonal:  Solving for T, Initial residual = 0, Final residual = 0, No Iterations 0
diagonal:  Solving for T, Initial residual = 0, Final residual = 0, No Iterations 0
 T goes from min(T) [0 0 0 0 0 0 0] 9.7429e-21 to max(T) [0 0 0 0 0 0 0] 0.953245

ExecutionTime = 25.95 s  ClockTime = 26 s

Time = 0.16
Courant Number mean: 0.373609 max: 0.733492
diagonal:  Solving for T, Initial residual = 0, Final residual = 0, No Iterations 0
diagonal:  Solving for T, Initial residual = 0, Final residual = 0, No Iterations 0
diagonal:  Solving for T, Initial residual = 0, Final residual = 0, No Iterations 0
diagonal:  Solving for T, Initial residual = 0, Final residual = 0, No Iterations 0
 T goes from min(T) [0 0 0 0 0 0 0] 1.02413e-20 to max(T) [0 0 0 0 0 0 0] 0.954072

ExecutionTime = 26.6 s  ClockTime = 26 s

Time = 0.165
Courant Number mean: 0.373567 max: 0.733322
diagonal:  Solving for T, Initial residual = 0, Final residual = 0, No Iterations 0
diagonal:  Solving for T, Initial residual = 0, Final residual = 0, No Iterations 0
diagonal:  Solving for T, Initial residual = 0, Final residual = 0, No Iterations 0
diagonal:  Solving for T, Initial residual = 0, Final residual = 0, No Iterations 0
 T goes from min(T) [0 0 0 0 0 0 0] 1.03895e-20 to max(T) [0 0 0 0 0 0 0] 0.954137

ExecutionTime = 27.21 s  ClockTime = 27 s

Time = 0.17
Courant Number mean: 0.373504 max: 0.733167
diagonal:  Solving for T, Initial residual = 0, Final residual = 0, No Iterations 0
diagonal:  Solving for T, Initial residual = 0, Final residual = 0, No Iterations 0
diagonal:  Solving for T, Initial residual = 0, Final residual = 0, No Iterations 0
diagonal:  Solving for T, Initial residual = 0, Final residual = 0, No Iterations 0
 T goes from min(T) [0 0 0 0 0 0 0] 9.884e-21 to max(T) [0 0 0 0 0 0 0] 0.953475

ExecutionTime = 27.85 s  ClockTime = 28 s

Time = 0.175
Courant Number mean: 0.373421 max: 0.732993
diagonal:  Solving for T, Initial residual = 0, Final residual = 0, No Iterations 0
diagonal:  Solving for T, Initial residual = 0, Final residual = 0, No Iterations 0
diagonal:  Solving for T, Initial residual = 0, Final residual = 0, No Iterations 0
diagonal:  Solving for T, Initial residual = 0, Final residual = 0, No Iterations 0
 T goes from min(T) [0 0 0 0 0 0 0] 9.86003e-21 to max(T) [0 0 0 0 0 0 0] 0.953931

ExecutionTime = 28.49 s  ClockTime = 28 s

Time = 0.18
Courant Number mean: 0.373363 max: 0.732824
diagonal:  Solving for T, Initial residual = 0, Final residual = 0, No Iterations 0
diagonal:  Solving for T, Initial residual = 0, Final residual = 0, No Iterations 0
diagonal:  Solving for T, Initial residual = 0, Final residual = 0, No Iterations 0
diagonal:  Solving for T, Initial residual = 0, Final residual = 0, No Iterations 0
 T goes from min(T) [0 0 0 0 0 0 0] 1.03242e-20 to max(T) [0 0 0 0 0 0 0] 0.954202

ExecutionTime = 29.11 s  ClockTime = 29 s

Time = 0.185
Courant Number mean: 0.373317 max: 0.732643
diagonal:  Solving for T, Initial residual = 0, Final residual = 0, No Iterations 0
diagonal:  Solving for T, Initial residual = 0, Final residual = 0, No Iterations 0
diagonal:  Solving for T, Initial residual = 0, Final residual = 0, No Iterations 0
diagonal:  Solving for T, Initial residual = 0, Final residual = 0, No Iterations 0
 T goes from min(T) [0 0 0 0 0 0 0] 1.0567e-20 to max(T) [0 0 0 0 0 0 0] 0.953763

ExecutionTime = 29.72 s  ClockTime = 30 s

Time = 0.19
Courant Number mean: 0.37325 max: 0.73246
diagonal:  Solving for T, Initial residual = 0, Final residual = 0, No Iterations 0
diagonal:  Solving for T, Initial residual = 0, Final residual = 0, No Iterations 0
diagonal:  Solving for T, Initial residual = 0, Final residual = 0, No Iterations 0
diagonal:  Solving for T, Initial residual = 0, Final residual = 0, No Iterations 0
 T goes from min(T) [0 0 0 0 0 0 0] 1.00321e-20 to max(T) [0 0 0 0 0 0 0] 0.953738

ExecutionTime = 30.35 s  ClockTime = 30 s

Time = 0.195
Courant Number mean: 0.373164 max: 0.732274
diagonal:  Solving for T, Initial residual = 0, Final residual = 0, No Iterations 0
diagonal:  Solving for T, Initial residual = 0, Final residual = 0, No Iterations 0
diagonal:  Solving for T, Initial residual = 0, Final residual = 0, No Iterations 0
diagonal:  Solving for T, Initial residual = 0, Final residual = 0, No Iterations 0
 T goes from min(T) [0 0 0 0 0 0 0] 9.97662e-21 to max(T) [0 0 0 0 0 0 0] 0.954206

ExecutionTime = 30.97 s  ClockTime = 31 s

Time = 0.2
Courant Number mean: 0.373089 max: 0.732077
diagonal:  Solving for T, Initial residual = 0, Final residual = 0, No Iterations 0
diagonal:  Solving for T, Initial residual = 0, Final residual = 0, No Iterations 0
diagonal:  Solving for T, Initial residual = 0, Final residual = 0, No Iterations 0
diagonal:  Solving for T, Initial residual = 0, Final residual = 0, No Iterations 0
 T goes from min(T) [0 0 0 0 0 0 0] 1.04073e-20 to max(T) [0 0 0 0 0 0 0] 0.953981

ExecutionTime = 31.59 s  ClockTime = 31 s

Time = 0.205
Courant Number mean: 0.373039 max: 0.731885
diagonal:  Solving for T, Initial residual = 0, Final residual = 0, No Iterations 0
diagonal:  Solving for T, Initial residual = 0, Final residual = 0, No Iterations 0
diagonal:  Solving for T, Initial residual = 0, Final residual = 0, No Iterations 0
diagonal:  Solving for T, Initial residual = 0, Final residual = 0, No Iterations 0
 T goes from min(T) [0 0 0 0 0 0 0] 1.07437e-20 to max(T) [0 0 0 0 0 0 0] 0.953497

ExecutionTime = 32.2 s  ClockTime = 32 s

Time = 0.21
Courant Number mean: 0.372969 max: 0.731673
diagonal:  Solving for T, Initial residual = 0, Final residual = 0, No Iterations 0
diagonal:  Solving for T, Initial residual = 0, Final residual = 0, No Iterations 0
diagonal:  Solving for T, Initial residual = 0, Final residual = 0, No Iterations 0
diagonal:  Solving for T, Initial residual = 0, Final residual = 0, No Iterations 0
 T goes from min(T) [0 0 0 0 0 0 0] 1.01796e-20 to max(T) [0 0 0 0 0 0 0] 0.954157

ExecutionTime = 32.82 s  ClockTime = 33 s

Time = 0.215
Courant Number mean: 0.372878 max: 0.731477
diagonal:  Solving for T, Initial residual = 0, Final residual = 0, No Iterations 0
diagonal:  Solving for T, Initial residual = 0, Final residual = 0, No Iterations 0
diagonal:  Solving for T, Initial residual = 0, Final residual = 0, No Iterations 0
diagonal:  Solving for T, Initial residual = 0, Final residual = 0, No Iterations 0
 T goes from min(T) [0 0 0 0 0 0 0] 1.00931e-20 to max(T) [0 0 0 0 0 0 0] 0.954141

ExecutionTime = 33.44 s  ClockTime = 33 s

Time = 0.22
Courant Number mean: 0.372786 max: 0.731251
diagonal:  Solving for T, Initial residual = 0, Final residual = 0, No Iterations 0
diagonal:  Solving for T, Initial residual = 0, Final residual = 0, No Iterations 0
diagonal:  Solving for T, Initial residual = 0, Final residual = 0, No Iterations 0
diagonal:  Solving for T, Initial residual = 0, Final residual = 0, No Iterations 0
 T goes from min(T) [0 0 0 0 0 0 0] 1.04911e-20 to max(T) [0 0 0 0 0 0 0] 0.953483

ExecutionTime = 34.06 s  ClockTime = 34 s

Time = 0.225
Courant Number mean: 0.372732 max: 0.731048
diagonal:  Solving for T, Initial residual = 0, Final residual = 0, No Iterations 0
diagonal:  Solving for T, Initial residual = 0, Final residual = 0, No Iterations 0
diagonal:  Solving for T, Initial residual = 0, Final residual = 0, No Iterations 0
diagonal:  Solving for T, Initial residual = 0, Final residual = 0, No Iterations 0
 T goes from min(T) [0 0 0 0 0 0 0] 1.092e-20 to max(T) [0 0 0 0 0 0 0] 0.954043

ExecutionTime = 34.69 s  ClockTime = 35 s

Time = 0.23
Courant Number mean: 0.372658 max: 0.730808
diagonal:  Solving for T, Initial residual = 0, Final residual = 0, No Iterations 0
diagonal:  Solving for T, Initial residual = 0, Final residual = 0, No Iterations 0
diagonal:  Solving for T, Initial residual = 0, Final residual = 0, No Iterations 0
diagonal:  Solving for T, Initial residual = 0, Final residual = 0, No Iterations 0
 T goes from min(T) [0 0 0 0 0 0 0] 1.03269e-20 to max(T) [0 0 0 0 0 0 0] 0.954235

ExecutionTime = 35.31 s  ClockTime = 35 s

Time = 0.235
Courant Number mean: 0.372563 max: 0.7306
diagonal:  Solving for T, Initial residual = 0, Final residual = 0, No Iterations 0
diagonal:  Solving for T, Initial residual = 0, Final residual = 0, No Iterations 0
diagonal:  Solving for T, Initial residual = 0, Final residual = 0, No Iterations 0
diagonal:  Solving for T, Initial residual = 0, Final residual = 0, No Iterations 0
 T goes from min(T) [0 0 0 0 0 0 0] 1.02098e-20 to max(T) [0 0 0 0 0 0 0] 0.9538

ExecutionTime = 35.94 s  ClockTime = 36 s

Time = 0.24
Courant Number mean: 0.372455 max: 0.730346
diagonal:  Solving for T, Initial residual = 0, Final residual = 0, No Iterations 0
diagonal:  Solving for T, Initial residual = 0, Final residual = 0, No Iterations 0
diagonal:  Solving for T, Initial residual = 0, Final residual = 0, No Iterations 0
diagonal:  Solving for T, Initial residual = 0, Final residual = 0, No Iterations 0
 T goes from min(T) [0 0 0 0 0 0 0] 1.05756e-20 to max(T) [0 0 0 0 0 0 0] 0.953825

ExecutionTime = 36.57 s  ClockTime = 36 s

Time = 0.245
Courant Number mean: 0.372398 max: 0.730133
diagonal:  Solving for T, Initial residual = 0, Final residual = 0, No Iterations 0
diagonal:  Solving for T, Initial residual = 0, Final residual = 0, No Iterations 0
diagonal:  Solving for T, Initial residual = 0, Final residual = 0, No Iterations 0
diagonal:  Solving for T, Initial residual = 0, Final residual = 0, No Iterations 0
 T goes from min(T) [0 0 0 0 0 0 0] 1.10962e-20 to max(T) [0 0 0 0 0 0 0] 0.954227

ExecutionTime = 37.18 s  ClockTime = 37 s

Time = 0.25
Courant Number mean: 0.37232 max: 0.729863
diagonal:  Solving for T, Initial residual = 0, Final residual = 0, No Iterations 0
diagonal:  Solving for T, Initial residual = 0, Final residual = 0, No Iterations 0
diagonal:  Solving for T, Initial residual = 0, Final residual = 0, No Iterations 0
diagonal:  Solving for T, Initial residual = 0, Final residual = 0, No Iterations 0
 T goes from min(T) [0 0 0 0 0 0 0] 1.04742e-20 to max(T) [0 0 0 0 0 0 0] 0.954016

ExecutionTime = 37.8 s  ClockTime = 38 s

Time = 0.255
Courant Number mean: 0.372221 max: 0.729645
diagonal:  Solving for T, Initial residual = 0, Final residual = 0, No Iterations 0
diagonal:  Solving for T, Initial residual = 0, Final residual = 0, No Iterations 0
diagonal:  Solving for T, Initial residual = 0, Final residual = 0, No Iterations 0
diagonal:  Solving for T, Initial residual = 0, Final residual = 0, No Iterations 0
 T goes from min(T) [0 0 0 0 0 0 0] 1.0327e-20 to max(T) [0 0 0 0 0 0 0] 0.95343

ExecutionTime = 38.42 s  ClockTime = 38 s

Time = 0.26
Courant Number mean: 0.372102 max: 0.729371
diagonal:  Solving for T, Initial residual = 0, Final residual = 0, No Iterations 0
diagonal:  Solving for T, Initial residual = 0, Final residual = 0, No Iterations 0
diagonal:  Solving for T, Initial residual = 0, Final residual = 0, No Iterations 0
diagonal:  Solving for T, Initial residual = 0, Final residual = 0, No Iterations 0
 T goes from min(T) [0 0 0 0 0 0 0] 1.0661e-20 to max(T) [0 0 0 0 0 0 0] 0.954049

ExecutionTime = 39.06 s  ClockTime = 39 s

Time = 0.265
Courant Number mean: 0.372035 max: 0.729138
diagonal:  Solving for T, Initial residual = 0, Final residual = 0, No Iterations 0
diagonal:  Solving for T, Initial residual = 0, Final residual = 0, No Iterations 0
diagonal:  Solving for T, Initial residual = 0, Final residual = 0, No Iterations 0
diagonal:  Solving for T, Initial residual = 0, Final residual = 0, No Iterations 0
 T goes from min(T) [0 0 0 0 0 0 0] 1.12724e-20 to max(T) [0 0 0 0 0 0 0] 0.954068

ExecutionTime = 39.71 s  ClockTime = 40 s

Time = 0.27
Courant Number mean: 0.371953 max: 0.728858
diagonal:  Solving for T, Initial residual = 0, Final residual = 0, No Iterations 0
diagonal:  Solving for T, Initial residual = 0, Final residual = 0, No Iterations 0
diagonal:  Solving for T, Initial residual = 0, Final residual = 0, No Iterations 0
diagonal:  Solving for T, Initial residual = 0, Final residual = 0, No Iterations 0
 T goes from min(T) [0 0 0 0 0 0 0] 1.06218e-20 to max(T) [0 0 0 0 0 0 0] 0.953519

ExecutionTime = 40.33 s  ClockTime = 40 s

Time = 0.275
Courant Number mean: 0.371851 max: 0.728611
diagonal:  Solving for T, Initial residual = 0, Final residual = 0, No Iterations 0
diagonal:  Solving for T, Initial residual = 0, Final residual = 0, No Iterations 0
diagonal:  Solving for T, Initial residual = 0, Final residual = 0, No Iterations 0
diagonal:  Solving for T, Initial residual = 0, Final residual = 0, No Iterations 0
 T goes from min(T) [0 0 0 0 0 0 0] 1.04447e-20 to max(T) [0 0 0 0 0 0 0] 0.953594

ExecutionTime = 40.97 s  ClockTime = 41 s

Time = 0.28
Courant Number mean: 0.371727 max: 0.728326
diagonal:  Solving for T, Initial residual = 0, Final residual = 0, No Iterations 0
diagonal:  Solving for T, Initial residual = 0, Final residual = 0, No Iterations 0
diagonal:  Solving for T, Initial residual = 0, Final residual = 0, No Iterations 0
diagonal:  Solving for T, Initial residual = 0, Final residual = 0, No Iterations 0
 T goes from min(T) [0 0 0 0 0 0 0] 1.07474e-20 to max(T) [0 0 0 0 0 0 0] 0.953852

ExecutionTime = 41.58 s  ClockTime = 41 s

Time = 0.285
Courant Number mean: 0.371643 max: 0.728065
diagonal:  Solving for T, Initial residual = 0, Final residual = 0, No Iterations 0
diagonal:  Solving for T, Initial residual = 0, Final residual = 0, No Iterations 0
diagonal:  Solving for T, Initial residual = 0, Final residual = 0, No Iterations 0
diagonal:  Solving for T, Initial residual = 0, Final residual = 0, No Iterations 0
 T goes from min(T) [0 0 0 0 0 0 0] 1.14489e-20 to max(T) [0 0 0 0 0 0 0] 0.953829

ExecutionTime = 42.2 s  ClockTime = 42 s

Time = 0.29
Courant Number mean: 0.371558 max: 0.727774
diagonal:  Solving for T, Initial residual = 0, Final residual = 0, No Iterations 0
diagonal:  Solving for T, Initial residual = 0, Final residual = 0, No Iterations 0
diagonal:  Solving for T, Initial residual = 0, Final residual = 0, No Iterations 0
diagonal:  Solving for T, Initial residual = 0, Final residual = 0, No Iterations 0
 T goes from min(T) [0 0 0 0 0 0 0] 1.07698e-20 to max(T) [0 0 0 0 0 0 0] 0.952954

ExecutionTime = 42.82 s  ClockTime = 43 s

Time = 0.295
Courant Number mean: 0.371452 max: 0.727498
diagonal:  Solving for T, Initial residual = 0, Final residual = 0, No Iterations 0
diagonal:  Solving for T, Initial residual = 0, Final residual = 0, No Iterations 0
diagonal:  Solving for T, Initial residual = 0, Final residual = 0, No Iterations 0
diagonal:  Solving for T, Initial residual = 0, Final residual = 0, No Iterations 0
 T goes from min(T) [0 0 0 0 0 0 0] 1.0563e-20 to max(T) [0 0 0 0 0 0 0] 0.95363

ExecutionTime = 43.44 s  ClockTime = 43 s

Time = 0.3
Courant Number mean: 0.371325 max: 0.727203
diagonal:  Solving for T, Initial residual = 0, Final residual = 0, No Iterations 0
diagonal:  Solving for T, Initial residual = 0, Final residual = 0, No Iterations 0
diagonal:  Solving for T, Initial residual = 0, Final residual = 0, No Iterations 0
diagonal:  Solving for T, Initial residual = 0, Final residual = 0, No Iterations 0
 T goes from min(T) [0 0 0 0 0 0 0] 1.08348e-20 to max(T) [0 0 0 0 0 0 0] 0.953923

ExecutionTime = 44.06 s  ClockTime = 44 s

Time = 0.305
Courant Number mean: 0.371224 max: 0.726913
diagonal:  Solving for T, Initial residual = 0, Final residual = 0, No Iterations 0
diagonal:  Solving for T, Initial residual = 0, Final residual = 0, No Iterations 0
diagonal:  Solving for T, Initial residual = 0, Final residual = 0, No Iterations 0
diagonal:  Solving for T, Initial residual = 0, Final residual = 0, No Iterations 0
 T goes from min(T) [0 0 0 0 0 0 0] 1.15987e-20 to max(T) [0 0 0 0 0 0 0] 0.953628

ExecutionTime = 44.68 s  ClockTime = 45 s

Time = 0.31
Courant Number mean: 0.371135 max: 0.726611
diagonal:  Solving for T, Initial residual = 0, Final residual = 0, No Iterations 0
diagonal:  Solving for T, Initial residual = 0, Final residual = 0, No Iterations 0
diagonal:  Solving for T, Initial residual = 0, Final residual = 0, No Iterations 0
diagonal:  Solving for T, Initial residual = 0, Final residual = 0, No Iterations 0
 T goes from min(T) [0 0 0 0 0 0 0] 1.09182e-20 to max(T) [0 0 0 0 0 0 0] 0.953392

ExecutionTime = 45.29 s  ClockTime = 45 s

Time = 0.315
Courant Number mean: 0.371026 max: 0.726307
diagonal:  Solving for T, Initial residual = 0, Final residual = 0, No Iterations 0
diagonal:  Solving for T, Initial residual = 0, Final residual = 0, No Iterations 0
diagonal:  Solving for T, Initial residual = 0, Final residual = 0, No Iterations 0
diagonal:  Solving for T, Initial residual = 0, Final residual = 0, No Iterations 0
 T goes from min(T) [0 0 0 0 0 0 0] 1.06821e-20 to max(T) [0 0 0 0 0 0 0] 0.954051

ExecutionTime = 45.91 s  ClockTime = 46 s

Time = 0.32
Courant Number mean: 0.370895 max: 0.726001
diagonal:  Solving for T, Initial residual = 0, Final residual = 0, No Iterations 0
diagonal:  Solving for T, Initial residual = 0, Final residual = 0, No Iterations 0
diagonal:  Solving for T, Initial residual = 0, Final residual = 0, No Iterations 0
diagonal:  Solving for T, Initial residual = 0, Final residual = 0, No Iterations 0
 T goes from min(T) [0 0 0 0 0 0 0] 1.09232e-20 to max(T) [0 0 0 0 0 0 0] 0.954172

ExecutionTime = 46.53 s  ClockTime = 46 s

Time = 0.325
Courant Number mean: 0.370777 max: 0.725683
diagonal:  Solving for T, Initial residual = 0, Final residual = 0, No Iterations 0
diagonal:  Solving for T, Initial residual = 0, Final residual = 0, No Iterations 0
diagonal:  Solving for T, Initial residual = 0, Final residual = 0, No Iterations 0
diagonal:  Solving for T, Initial residual = 0, Final residual = 0, No Iterations 0
 T goes from min(T) [0 0 0 0 0 0 0] 1.16552e-20 to max(T) [0 0 0 0 0 0 0] 0.953784

ExecutionTime = 47.14 s  ClockTime = 47 s

Time = 0.33
Courant Number mean: 0.370685 max: 0.72537
diagonal:  Solving for T, Initial residual = 0, Final residual = 0, No Iterations 0
diagonal:  Solving for T, Initial residual = 0, Final residual = 0, No Iterations 0
diagonal:  Solving for T, Initial residual = 0, Final residual = 0, No Iterations 0
diagonal:  Solving for T, Initial residual = 0, Final residual = 0, No Iterations 0
 T goes from min(T) [0 0 0 0 0 0 0] 1.10672e-20 to max(T) [0 0 0 0 0 0 0] 0.953709

ExecutionTime = 47.76 s  ClockTime = 48 s

Time = 0.335
Courant Number mean: 0.370572 max: 0.725038
diagonal:  Solving for T, Initial residual = 0, Final residual = 0, No Iterations 0
diagonal:  Solving for T, Initial residual = 0, Final residual = 0, No Iterations 0
diagonal:  Solving for T, Initial residual = 0, Final residual = 0, No Iterations 0
diagonal:  Solving for T, Initial residual = 0, Final residual = 0, No Iterations 0
 T goes from min(T) [0 0 0 0 0 0 0] 1.0802e-20 to max(T) [0 0 0 0 0 0 0] 0.954128

ExecutionTime = 48.43 s  ClockTime = 48 s

Time = 0.34
Courant Number mean: 0.370438 max: 0.724721
diagonal:  Solving for T, Initial residual = 0, Final residual = 0, No Iterations 0
diagonal:  Solving for T, Initial residual = 0, Final residual = 0, No Iterations 0
diagonal:  Solving for T, Initial residual = 0, Final residual = 0, No Iterations 0
diagonal:  Solving for T, Initial residual = 0, Final residual = 0, No Iterations 0
 T goes from min(T) [0 0 0 0 0 0 0] 1.10127e-20 to max(T) [0 0 0 0 0 0 0] 0.954043

ExecutionTime = 49.05 s  ClockTime = 49 s

Time = 0.345
Courant Number mean: 0.370303 max: 0.724375
diagonal:  Solving for T, Initial residual = 0, Final residual = 0, No Iterations 0
diagonal:  Solving for T, Initial residual = 0, Final residual = 0, No Iterations 0
diagonal:  Solving for T, Initial residual = 0, Final residual = 0, No Iterations 0
diagonal:  Solving for T, Initial residual = 0, Final residual = 0, No Iterations 0
 T goes from min(T) [0 0 0 0 0 0 0] 1.1713e-20 to max(T) [0 0 0 0 0 0 0] 0.953482

ExecutionTime = 49.79 s  ClockTime = 50 s

Time = 0.35
Courant Number mean: 0.370207 max: 0.724051
diagonal:  Solving for T, Initial residual = 0, Final residual = 0, No Iterations 0
diagonal:  Solving for T, Initial residual = 0, Final residual = 0, No Iterations 0
diagonal:  Solving for T, Initial residual = 0, Final residual = 0, No Iterations 0
diagonal:  Solving for T, Initial residual = 0, Final residual = 0, No Iterations 0
 T goes from min(T) [0 0 0 0 0 0 0] 1.12167e-20 to max(T) [0 0 0 0 0 0 0] 0.953573

ExecutionTime = 50.43 s  ClockTime = 50 s

Time = 0.355
Courant Number mean: 0.370091 max: 0.723691
diagonal:  Solving for T, Initial residual = 0, Final residual = 0, No Iterations 0
diagonal:  Solving for T, Initial residual = 0, Final residual = 0, No Iterations 0
diagonal:  Solving for T, Initial residual = 0, Final residual = 0, No Iterations 0
diagonal:  Solving for T, Initial residual = 0, Final residual = 0, No Iterations 0
 T goes from min(T) [0 0 0 0 0 0 0] 1.09226e-20 to max(T) [0 0 0 0 0 0 0] 0.953583

ExecutionTime = 51.06 s  ClockTime = 51 s

Time = 0.36
Courant Number mean: 0.369953 max: 0.723363
diagonal:  Solving for T, Initial residual = 0, Final residual = 0, No Iterations 0
diagonal:  Solving for T, Initial residual = 0, Final residual = 0, No Iterations 0
diagonal:  Solving for T, Initial residual = 0, Final residual = 0, No Iterations 0
diagonal:  Solving for T, Initial residual = 0, Final residual = 0, No Iterations 0
 T goes from min(T) [0 0 0 0 0 0 0] 1.11033e-20 to max(T) [0 0 0 0 0 0 0] 0.953896

ExecutionTime = 51.67 s  ClockTime = 52 s

Time = 0.365
Courant Number mean: 0.369802 max: 0.722989
diagonal:  Solving for T, Initial residual = 0, Final residual = 0, No Iterations 0
diagonal:  Solving for T, Initial residual = 0, Final residual = 0, No Iterations 0
diagonal:  Solving for T, Initial residual = 0, Final residual = 0, No Iterations 0
diagonal:  Solving for T, Initial residual = 0, Final residual = 0, No Iterations 0
 T goes from min(T) [0 0 0 0 0 0 0] 1.17722e-20 to max(T) [0 0 0 0 0 0 0] 0.95319

ExecutionTime = 52.29 s  ClockTime = 52 s

Time = 0.37
Courant Number mean: 0.369702 max: 0.722655
diagonal:  Solving for T, Initial residual = 0, Final residual = 0, No Iterations 0
diagonal:  Solving for T, Initial residual = 0, Final residual = 0, No Iterations 0
diagonal:  Solving for T, Initial residual = 0, Final residual = 0, No Iterations 0
diagonal:  Solving for T, Initial residual = 0, Final residual = 0, No Iterations 0
 T goes from min(T) [0 0 0 0 0 0 0] 1.13667e-20 to max(T) [0 0 0 0 0 0 0] 0.953749

ExecutionTime = 52.91 s  ClockTime = 53 s

Time = 0.375
Courant Number mean: 0.369582 max: 0.722266
diagonal:  Solving for T, Initial residual = 0, Final residual = 0, No Iterations 0
diagonal:  Solving for T, Initial residual = 0, Final residual = 0, No Iterations 0
diagonal:  Solving for T, Initial residual = 0, Final residual = 0, No Iterations 0
diagonal:  Solving for T, Initial residual = 0, Final residual = 0, No Iterations 0
 T goes from min(T) [0 0 0 0 0 0 0] 1.1044e-20 to max(T) [0 0 0 0 0 0 0] 0.954158

ExecutionTime = 53.54 s  ClockTime = 53 s

Time = 0.38
Courant Number mean: 0.369441 max: 0.721927
diagonal:  Solving for T, Initial residual = 0, Final residual = 0, No Iterations 0
diagonal:  Solving for T, Initial residual = 0, Final residual = 0, No Iterations 0
diagonal:  Solving for T, Initial residual = 0, Final residual = 0, No Iterations 0
diagonal:  Solving for T, Initial residual = 0, Final residual = 0, No Iterations 0
 T goes from min(T) [0 0 0 0 0 0 0] 1.1195e-20 to max(T) [0 0 0 0 0 0 0] 0.954099

ExecutionTime = 54.16 s  ClockTime = 54 s

Time = 0.385
Courant Number mean: 0.36928 max: 0.721534
diagonal:  Solving for T, Initial residual = 0, Final residual = 0, No Iterations 0
diagonal:  Solving for T, Initial residual = 0, Final residual = 0, No Iterations 0
diagonal:  Solving for T, Initial residual = 0, Final residual = 0, No Iterations 0
diagonal:  Solving for T, Initial residual = 0, Final residual = 0, No Iterations 0
 T goes from min(T) [0 0 0 0 0 0 0] 1.18326e-20 to max(T) [0 0 0 0 0 0 0] 0.9536

ExecutionTime = 54.78 s  ClockTime = 55 s

Time = 0.39
Courant Number mean: 0.36917 max: 0.72118
diagonal:  Solving for T, Initial residual = 0, Final residual = 0, No Iterations 0
diagonal:  Solving for T, Initial residual = 0, Final residual = 0, No Iterations 0
diagonal:  Solving for T, Initial residual = 0, Final residual = 0, No Iterations 0
diagonal:  Solving for T, Initial residual = 0, Final residual = 0, No Iterations 0
 T goes from min(T) [0 0 0 0 0 0 0] 1.15173e-20 to max(T) [0 0 0 0 0 0 0] 0.953486

ExecutionTime = 55.41 s  ClockTime = 55 s

Time = 0.395
Courant Number mean: 0.369046 max: 0.720781
diagonal:  Solving for T, Initial residual = 0, Final residual = 0, No Iterations 0
diagonal:  Solving for T, Initial residual = 0, Final residual = 0, No Iterations 0
diagonal:  Solving for T, Initial residual = 0, Final residual = 0, No Iterations 0
diagonal:  Solving for T, Initial residual = 0, Final residual = 0, No Iterations 0
 T goes from min(T) [0 0 0 0 0 0 0] 1.11662e-20 to max(T) [0 0 0 0 0 0 0] 0.95354

ExecutionTime = 56.03 s  ClockTime = 56 s

Time = 0.4
Courant Number mean: 0.368902 max: 0.720414
diagonal:  Solving for T, Initial residual = 0, Final residual = 0, No Iterations 0
diagonal:  Solving for T, Initial residual = 0, Final residual = 0, No Iterations 0
diagonal:  Solving for T, Initial residual = 0, Final residual = 0, No Iterations 0
diagonal:  Solving for T, Initial residual = 0, Final residual = 0, No Iterations 0
 T goes from min(T) [0 0 0 0 0 0 0] 1.12876e-20 to max(T) [0 0 0 0 0 0 0] 0.953865

ExecutionTime = 56.65 s  ClockTime = 57 s

Time = 0.405
Courant Number mean: 0.368738 max: 0.72001
diagonal:  Solving for T, Initial residual = 0, Final residual = 0, No Iterations 0
diagonal:  Solving for T, Initial residual = 0, Final residual = 0, No Iterations 0
diagonal:  Solving for T, Initial residual = 0, Final residual = 0, No Iterations 0
diagonal:  Solving for T, Initial residual = 0, Final residual = 0, No Iterations 0
 T goes from min(T) [0 0 0 0 0 0 0] 1.18943e-20 to max(T) [0 0 0 0 0 0 0] 0.953286

ExecutionTime = 57.27 s  ClockTime = 57 s

Time = 0.41
Courant Number mean: 0.368612 max: 0.719629
diagonal:  Solving for T, Initial residual = 0, Final residual = 0, No Iterations 0
diagonal:  Solving for T, Initial residual = 0, Final residual = 0, No Iterations 0
diagonal:  Solving for T, Initial residual = 0, Final residual = 0, No Iterations 0
diagonal:  Solving for T, Initial residual = 0, Final residual = 0, No Iterations 0
 T goes from min(T) [0 0 0 0 0 0 0] 1.16685e-20 to max(T) [0 0 0 0 0 0 0] 0.953408

ExecutionTime = 57.91 s  ClockTime = 58 s

Time = 0.415
Courant Number mean: 0.368484 max: 0.719218
diagonal:  Solving for T, Initial residual = 0, Final residual = 0, No Iterations 0
diagonal:  Solving for T, Initial residual = 0, Final residual = 0, No Iterations 0
diagonal:  Solving for T, Initial residual = 0, Final residual = 0, No Iterations 0
diagonal:  Solving for T, Initial residual = 0, Final residual = 0, No Iterations 0
 T goes from min(T) [0 0 0 0 0 0 0] 1.12892e-20 to max(T) [0 0 0 0 0 0 0] 0.953962

ExecutionTime = 58.53 s  ClockTime = 58 s

Time = 0.42
Courant Number mean: 0.368337 max: 0.718824
diagonal:  Solving for T, Initial residual = 0, Final residual = 0, No Iterations 0
diagonal:  Solving for T, Initial residual = 0, Final residual = 0, No Iterations 0
diagonal:  Solving for T, Initial residual = 0, Final residual = 0, No Iterations 0
diagonal:  Solving for T, Initial residual = 0, Final residual = 0, No Iterations 0
 T goes from min(T) [0 0 0 0 0 0 0] 1.13813e-20 to max(T) [0 0 0 0 0 0 0] 0.954073

ExecutionTime = 59.15 s  ClockTime = 59 s

Time = 0.425
Courant Number mean: 0.36817 max: 0.718409
diagonal:  Solving for T, Initial residual = 0, Final residual = 0, No Iterations 0
diagonal:  Solving for T, Initial residual = 0, Final residual = 0, No Iterations 0
diagonal:  Solving for T, Initial residual = 0, Final residual = 0, No Iterations 0
diagonal:  Solving for T, Initial residual = 0, Final residual = 0, No Iterations 0
 T goes from min(T) [0 0 0 0 0 0 0] 1.19573e-20 to max(T) [0 0 0 0 0 0 0] 0.953768

ExecutionTime = 59.77 s  ClockTime = 60 s

Time = 0.43
Courant Number mean: 0.368027 max: 0.718
diagonal:  Solving for T, Initial residual = 0, Final residual = 0, No Iterations 0
diagonal:  Solving for T, Initial residual = 0, Final residual = 0, No Iterations 0
diagonal:  Solving for T, Initial residual = 0, Final residual = 0, No Iterations 0
diagonal:  Solving for T, Initial residual = 0, Final residual = 0, No Iterations 0
 T goes from min(T) [0 0 0 0 0 0 0] 1.18202e-20 to max(T) [0 0 0 0 0 0 0] 0.953071

ExecutionTime = 60.45 s  ClockTime = 60 s

Time = 0.435
Courant Number mean: 0.367896 max: 0.717579
diagonal:  Solving for T, Initial residual = 0, Final residual = 0, No Iterations 0
diagonal:  Solving for T, Initial residual = 0, Final residual = 0, No Iterations 0
diagonal:  Solving for T, Initial residual = 0, Final residual = 0, No Iterations 0
diagonal:  Solving for T, Initial residual = 0, Final residual = 0, No Iterations 0
 T goes from min(T) [0 0 0 0 0 0 0] 1.14128e-20 to max(T) [0 0 0 0 0 0 0] 0.95363

ExecutionTime = 61.08 s  ClockTime = 61 s

Time = 0.44
Courant Number mean: 0.367746 max: 0.717156
diagonal:  Solving for T, Initial residual = 0, Final residual = 0, No Iterations 0
diagonal:  Solving for T, Initial residual = 0, Final residual = 0, No Iterations 0
diagonal:  Solving for T, Initial residual = 0, Final residual = 0, No Iterations 0
diagonal:  Solving for T, Initial residual = 0, Final residual = 0, No Iterations 0
 T goes from min(T) [0 0 0 0 0 0 0] 1.14759e-20 to max(T) [0 0 0 0 0 0 0] 0.953909

ExecutionTime = 61.69 s  ClockTime = 62 s

Time = 0.445
Courant Number mean: 0.367576 max: 0.716731
diagonal:  Solving for T, Initial residual = 0, Final residual = 0, No Iterations 0
diagonal:  Solving for T, Initial residual = 0, Final residual = 0, No Iterations 0
diagonal:  Solving for T, Initial residual = 0, Final residual = 0, No Iterations 0
diagonal:  Solving for T, Initial residual = 0, Final residual = 0, No Iterations 0
 T goes from min(T) [0 0 0 0 0 0 0] 1.20214e-20 to max(T) [0 0 0 0 0 0 0] 0.953812

ExecutionTime = 62.32 s  ClockTime = 62 s

Time = 0.45
Courant Number mean: 0.367417 max: 0.716294
diagonal:  Solving for T, Initial residual = 0, Final residual = 0, No Iterations 0
diagonal:  Solving for T, Initial residual = 0, Final residual = 0, No Iterations 0
diagonal:  Solving for T, Initial residual = 0, Final residual = 0, No Iterations 0
diagonal:  Solving for T, Initial residual = 0, Final residual = 0, No Iterations 0
 T goes from min(T) [0 0 0 0 0 0 0] 1.19724e-20 to max(T) [0 0 0 0 0 0 0] 0.953321

ExecutionTime = 62.97 s  ClockTime = 63 s

Time = 0.455
Courant Number mean: 0.367282 max: 0.715863
diagonal:  Solving for T, Initial residual = 0, Final residual = 0, No Iterations 0
diagonal:  Solving for T, Initial residual = 0, Final residual = 0, No Iterations 0
diagonal:  Solving for T, Initial residual = 0, Final residual = 0, No Iterations 0
diagonal:  Solving for T, Initial residual = 0, Final residual = 0, No Iterations 0
 T goes from min(T) [0 0 0 0 0 0 0] 1.15372e-20 to max(T) [0 0 0 0 0 0 0] 0.953191

ExecutionTime = 63.59 s  ClockTime = 63 s

Time = 0.46
Courant Number mean: 0.367128 max: 0.715412
diagonal:  Solving for T, Initial residual = 0, Final residual = 0, No Iterations 0
diagonal:  Solving for T, Initial residual = 0, Final residual = 0, No Iterations 0
diagonal:  Solving for T, Initial residual = 0, Final residual = 0, No Iterations 0
diagonal:  Solving for T, Initial residual = 0, Final residual = 0, No Iterations 0
 T goes from min(T) [0 0 0 0 0 0 0] 1.15714e-20 to max(T) [0 0 0 0 0 0 0] 0.953365

ExecutionTime = 64.24 s  ClockTime = 64 s

Time = 0.465
Courant Number mean: 0.366954 max: 0.714976
diagonal:  Solving for T, Initial residual = 0, Final residual = 0, No Iterations 0
diagonal:  Solving for T, Initial residual = 0, Final residual = 0, No Iterations 0
diagonal:  Solving for T, Initial residual = 0, Final residual = 0, No Iterations 0
diagonal:  Solving for T, Initial residual = 0, Final residual = 0, No Iterations 0
 T goes from min(T) [0 0 0 0 0 0 0] 1.20867e-20 to max(T) [0 0 0 0 0 0 0] 0.953893

ExecutionTime = 64.87 s  ClockTime = 65 s

Time = 0.47
Courant Number mean: 0.36678 max: 0.714512
diagonal:  Solving for T, Initial residual = 0, Final residual = 0, No Iterations 0
diagonal:  Solving for T, Initial residual = 0, Final residual = 0, No Iterations 0
diagonal:  Solving for T, Initial residual = 0, Final residual = 0, No Iterations 0
diagonal:  Solving for T, Initial residual = 0, Final residual = 0, No Iterations 0
 T goes from min(T) [0 0 0 0 0 0 0] 1.2125e-20 to max(T) [0 0 0 0 0 0 0] 0.953255

ExecutionTime = 65.5 s  ClockTime = 65 s

Time = 0.475
Courant Number mean: 0.366642 max: 0.71407
diagonal:  Solving for T, Initial residual = 0, Final residual = 0, No Iterations 0
diagonal:  Solving for T, Initial residual = 0, Final residual = 0, No Iterations 0
diagonal:  Solving for T, Initial residual = 0, Final residual = 0, No Iterations 0
diagonal:  Solving for T, Initial residual = 0, Final residual = 0, No Iterations 0
 T goes from min(T) [0 0 0 0 0 0 0] 1.16622e-20 to max(T) [0 0 0 0 0 0 0] 0.953006

ExecutionTime = 66.11 s  ClockTime = 66 s

Time = 0.48
Courant Number mean: 0.366484 max: 0.713591
diagonal:  Solving for T, Initial residual = 0, Final residual = 0, No Iterations 0
diagonal:  Solving for T, Initial residual = 0, Final residual = 0, No Iterations 0
diagonal:  Solving for T, Initial residual = 0, Final residual = 0, No Iterations 0
diagonal:  Solving for T, Initial residual = 0, Final residual = 0, No Iterations 0
 T goes from min(T) [0 0 0 0 0 0 0] 1.16679e-20 to max(T) [0 0 0 0 0 0 0] 0.952945

ExecutionTime = 66.74 s  ClockTime = 67 s

Time = 0.485
Courant Number mean: 0.366307 max: 0.713145
diagonal:  Solving for T, Initial residual = 0, Final residual = 0, No Iterations 0
diagonal:  Solving for T, Initial residual = 0, Final residual = 0, No Iterations 0
diagonal:  Solving for T, Initial residual = 0, Final residual = 0, No Iterations 0
diagonal:  Solving for T, Initial residual = 0, Final residual = 0, No Iterations 0
 T goes from min(T) [0 0 0 0 0 0 0] 1.21531e-20 to max(T) [0 0 0 0 0 0 0] 0.953757

ExecutionTime = 67.36 s  ClockTime = 67 s

Time = 0.49
Courant Number mean: 0.366117 max: 0.712653
diagonal:  Solving for T, Initial residual = 0, Final residual = 0, No Iterations 0
diagonal:  Solving for T, Initial residual = 0, Final residual = 0, No Iterations 0
diagonal:  Solving for T, Initial residual = 0, Final residual = 0, No Iterations 0
diagonal:  Solving for T, Initial residual = 0, Final residual = 0, No Iterations 0
 T goes from min(T) [0 0 0 0 0 0 0] 1.22781e-20 to max(T) [0 0 0 0 0 0 0] 0.953424

ExecutionTime = 67.98 s  ClockTime = 68 s

Time = 0.495
Courant Number mean: 0.365975 max: 0.712201
diagonal:  Solving for T, Initial residual = 0, Final residual = 0, No Iterations 0
diagonal:  Solving for T, Initial residual = 0, Final residual = 0, No Iterations 0
diagonal:  Solving for T, Initial residual = 0, Final residual = 0, No Iterations 0
diagonal:  Solving for T, Initial residual = 0, Final residual = 0, No Iterations 0
 T goes from min(T) [0 0 0 0 0 0 0] 1.17879e-20 to max(T) [0 0 0 0 0 0 0] 0.953498

ExecutionTime = 68.6 s  ClockTime = 68 s

Time = 0.5
Courant Number mean: 0.365815 max: 0.711695
diagonal:  Solving for T, Initial residual = 0, Final residual = 0, No Iterations 0
diagonal:  Solving for T, Initial residual = 0, Final residual = 0, No Iterations 0
diagonal:  Solving for T, Initial residual = 0, Final residual = 0, No Iterations 0
diagonal:  Solving for T, Initial residual = 0, Final residual = 0, No Iterations 0
 T goes from min(T) [0 0 0 0 0 0 0] 1.17651e-20 to max(T) [0 0 0 0 0 0 0] 0.952437

ExecutionTime = 69.24 s  ClockTime = 69 s

Time = 0.505
Courant Number mean: 0.365634 max: 0.711238
diagonal:  Solving for T, Initial residual = 0, Final residual = 0, No Iterations 0
diagonal:  Solving for T, Initial residual = 0, Final residual = 0, No Iterations 0
diagonal:  Solving for T, Initial residual = 0, Final residual = 0, No Iterations 0
diagonal:  Solving for T, Initial residual = 0, Final residual = 0, No Iterations 0
 T goes from min(T) [0 0 0 0 0 0 0] 1.22206e-20 to max(T) [0 0 0 0 0 0 0] 0.953216

ExecutionTime = 69.86 s  ClockTime = 70 s

Time = 0.51
Courant Number mean: 0.365433 max: 0.710727
diagonal:  Solving for T, Initial residual = 0, Final residual = 0, No Iterations 0
diagonal:  Solving for T, Initial residual = 0, Final residual = 0, No Iterations 0
diagonal:  Solving for T, Initial residual = 0, Final residual = 0, No Iterations 0
diagonal:  Solving for T, Initial residual = 0, Final residual = 0, No Iterations 0
 T goes from min(T) [0 0 0 0 0 0 0] 1.24316e-20 to max(T) [0 0 0 0 0 0 0] 0.953311

ExecutionTime = 70.52 s  ClockTime = 70 s

Time = 0.515
Courant Number mean: 0.365283 max: 0.710256
diagonal:  Solving for T, Initial residual = 0, Final residual = 0, No Iterations 0
diagonal:  Solving for T, Initial residual = 0, Final residual = 0, No Iterations 0
diagonal:  Solving for T, Initial residual = 0, Final residual = 0, No Iterations 0
diagonal:  Solving for T, Initial residual = 0, Final residual = 0, No Iterations 0
 T goes from min(T) [0 0 0 0 0 0 0] 1.19141e-20 to max(T) [0 0 0 0 0 0 0] 0.953741

ExecutionTime = 71.14 s  ClockTime = 71 s

Time = 0.52
Courant Number mean: 0.36512 max: 0.70974
diagonal:  Solving for T, Initial residual = 0, Final residual = 0, No Iterations 0
diagonal:  Solving for T, Initial residual = 0, Final residual = 0, No Iterations 0
diagonal:  Solving for T, Initial residual = 0, Final residual = 0, No Iterations 0
diagonal:  Solving for T, Initial residual = 0, Final residual = 0, No Iterations 0
 T goes from min(T) [0 0 0 0 0 0 0] 1.18632e-20 to max(T) [0 0 0 0 0 0 0] 0.953091

ExecutionTime = 71.75 s  ClockTime = 72 s

Time = 0.525
Courant Number mean: 0.364936 max: 0.709255
diagonal:  Solving for T, Initial residual = 0, Final residual = 0, No Iterations 0
diagonal:  Solving for T, Initial residual = 0, Final residual = 0, No Iterations 0
diagonal:  Solving for T, Initial residual = 0, Final residual = 0, No Iterations 0
diagonal:  Solving for T, Initial residual = 0, Final residual = 0, No Iterations 0
 T goes from min(T) [0 0 0 0 0 0 0] 1.2289e-20 to max(T) [0 0 0 0 0 0 0] 0.952793

ExecutionTime = 72.36 s  ClockTime = 72 s

Time = 0.53
Courant Number mean: 0.364732 max: 0.708734
diagonal:  Solving for T, Initial residual = 0, Final residual = 0, No Iterations 0
diagonal:  Solving for T, Initial residual = 0, Final residual = 0, No Iterations 0
diagonal:  Solving for T, Initial residual = 0, Final residual = 0, No Iterations 0
diagonal:  Solving for T, Initial residual = 0, Final residual = 0, No Iterations 0
 T goes from min(T) [0 0 0 0 0 0 0] 1.25855e-20 to max(T) [0 0 0 0 0 0 0] 0.95287

ExecutionTime = 72.98 s  ClockTime = 73 s

Time = 0.535
Courant Number mean: 0.364566 max: 0.708236
diagonal:  Solving for T, Initial residual = 0, Final residual = 0, No Iterations 0
diagonal:  Solving for T, Initial residual = 0, Final residual = 0, No Iterations 0
diagonal:  Solving for T, Initial residual = 0, Final residual = 0, No Iterations 0
diagonal:  Solving for T, Initial residual = 0, Final residual = 0, No Iterations 0
 T goes from min(T) [0 0 0 0 0 0 0] 1.20408e-20 to max(T) [0 0 0 0 0 0 0] 0.953276

ExecutionTime = 73.59 s  ClockTime = 73 s

Time = 0.54
Courant Number mean: 0.3644 max: 0.707709
diagonal:  Solving for T, Initial residual = 0, Final residual = 0, No Iterations 0
diagonal:  Solving for T, Initial residual = 0, Final residual = 0, No Iterations 0
diagonal:  Solving for T, Initial residual = 0, Final residual = 0, No Iterations 0
diagonal:  Solving for T, Initial residual = 0, Final residual = 0, No Iterations 0
 T goes from min(T) [0 0 0 0 0 0 0] 1.1962e-20 to max(T) [0 0 0 0 0 0 0] 0.953627

ExecutionTime = 74.21 s  ClockTime = 74 s

Time = 0.545
Courant Number mean: 0.364213 max: 0.707197
diagonal:  Solving for T, Initial residual = 0, Final residual = 0, No Iterations 0
diagonal:  Solving for T, Initial residual = 0, Final residual = 0, No Iterations 0
diagonal:  Solving for T, Initial residual = 0, Final residual = 0, No Iterations 0
diagonal:  Solving for T, Initial residual = 0, Final residual = 0, No Iterations 0
 T goes from min(T) [0 0 0 0 0 0 0] 1.23585e-20 to max(T) [0 0 0 0 0 0 0] 0.953261

ExecutionTime = 74.83 s  ClockTime = 75 s

Time = 0.55
Courant Number mean: 0.364005 max: 0.706666
diagonal:  Solving for T, Initial residual = 0, Final residual = 0, No Iterations 0
diagonal:  Solving for T, Initial residual = 0, Final residual = 0, No Iterations 0
diagonal:  Solving for T, Initial residual = 0, Final residual = 0, No Iterations 0
diagonal:  Solving for T, Initial residual = 0, Final residual = 0, No Iterations 0
 T goes from min(T) [0 0 0 0 0 0 0] 1.27396e-20 to max(T) [0 0 0 0 0 0 0] 0.952898

ExecutionTime = 75.45 s  ClockTime = 75 s

Time = 0.555
Courant Number mean: 0.363823 max: 0.70614
diagonal:  Solving for T, Initial residual = 0, Final residual = 0, No Iterations 0
diagonal:  Solving for T, Initial residual = 0, Final residual = 0, No Iterations 0
diagonal:  Solving for T, Initial residual = 0, Final residual = 0, No Iterations 0
diagonal:  Solving for T, Initial residual = 0, Final residual = 0, No Iterations 0
 T goes from min(T) [0 0 0 0 0 0 0] 1.21681e-20 to max(T) [0 0 0 0 0 0 0] 0.9522

ExecutionTime = 76.07 s  ClockTime = 76 s

Time = 0.56
Courant Number mean: 0.363654 max: 0.705603
diagonal:  Solving for T, Initial residual = 0, Final residual = 0, No Iterations 0
diagonal:  Solving for T, Initial residual = 0, Final residual = 0, No Iterations 0
diagonal:  Solving for T, Initial residual = 0, Final residual = 0, No Iterations 0
diagonal:  Solving for T, Initial residual = 0, Final residual = 0, No Iterations 0
 T goes from min(T) [0 0 0 0 0 0 0] 1.20615e-20 to max(T) [0 0 0 0 0 0 0] 0.952996

ExecutionTime = 76.7 s  ClockTime = 77 s

Time = 0.565
Courant Number mean: 0.363464 max: 0.705063
diagonal:  Solving for T, Initial residual = 0, Final residual = 0, No Iterations 0
diagonal:  Solving for T, Initial residual = 0, Final residual = 0, No Iterations 0
diagonal:  Solving for T, Initial residual = 0, Final residual = 0, No Iterations 0
diagonal:  Solving for T, Initial residual = 0, Final residual = 0, No Iterations 0
 T goes from min(T) [0 0 0 0 0 0 0] 1.24288e-20 to max(T) [0 0 0 0 0 0 0] 0.953414

ExecutionTime = 77.34 s  ClockTime = 77 s

Time = 0.57
Courant Number mean: 0.363254 max: 0.704522
diagonal:  Solving for T, Initial residual = 0, Final residual = 0, No Iterations 0
diagonal:  Solving for T, Initial residual = 0, Final residual = 0, No Iterations 0
diagonal:  Solving for T, Initial residual = 0, Final residual = 0, No Iterations 0
diagonal:  Solving for T, Initial residual = 0, Final residual = 0, No Iterations 0
 T goes from min(T) [0 0 0 0 0 0 0] 1.28941e-20 to max(T) [0 0 0 0 0 0 0] 0.953417

ExecutionTime = 77.97 s  ClockTime = 78 s

Time = 0.575
Courant Number mean: 0.363057 max: 0.703969
diagonal:  Solving for T, Initial residual = 0, Final residual = 0, No Iterations 0
diagonal:  Solving for T, Initial residual = 0, Final residual = 0, No Iterations 0
diagonal:  Solving for T, Initial residual = 0, Final residual = 0, No Iterations 0
diagonal:  Solving for T, Initial residual = 0, Final residual = 0, No Iterations 0
 T goes from min(T) [0 0 0 0 0 0 0] 1.22958e-20 to max(T) [0 0 0 0 0 0 0] 0.953095

ExecutionTime = 78.61 s  ClockTime = 79 s

Time = 0.58
Courant Number mean: 0.362883 max: 0.703422
diagonal:  Solving for T, Initial residual = 0, Final residual = 0, No Iterations 0
diagonal:  Solving for T, Initial residual = 0, Final residual = 0, No Iterations 0
diagonal:  Solving for T, Initial residual = 0, Final residual = 0, No Iterations 0
diagonal:  Solving for T, Initial residual = 0, Final residual = 0, No Iterations 0
 T goes from min(T) [0 0 0 0 0 0 0] 1.21616e-20 to max(T) [0 0 0 0 0 0 0] 0.952432

ExecutionTime = 79.25 s  ClockTime = 79 s

Time = 0.585
Courant Number mean: 0.36269 max: 0.702855
diagonal:  Solving for T, Initial residual = 0, Final residual = 0, No Iterations 0
diagonal:  Solving for T, Initial residual = 0, Final residual = 0, No Iterations 0
diagonal:  Solving for T, Initial residual = 0, Final residual = 0, No Iterations 0
diagonal:  Solving for T, Initial residual = 0, Final residual = 0, No Iterations 0
 T goes from min(T) [0 0 0 0 0 0 0] 1.25e-20 to max(T) [0 0 0 0 0 0 0] 0.951806

ExecutionTime = 79.89 s  ClockTime = 80 s

Time = 0.59
Courant Number mean: 0.362479 max: 0.702303
diagonal:  Solving for T, Initial residual = 0, Final residual = 0, No Iterations 0
diagonal:  Solving for T, Initial residual = 0, Final residual = 0, No Iterations 0
diagonal:  Solving for T, Initial residual = 0, Final residual = 0, No Iterations 0
diagonal:  Solving for T, Initial residual = 0, Final residual = 0, No Iterations 0
 T goes from min(T) [0 0 0 0 0 0 0] 1.30487e-20 to max(T) [0 0 0 0 0 0 0] 0.952932

ExecutionTime = 80.52 s  ClockTime = 80 s

Time = 0.595
Courant Number mean: 0.362267 max: 0.701724
diagonal:  Solving for T, Initial residual = 0, Final residual = 0, No Iterations 0
diagonal:  Solving for T, Initial residual = 0, Final residual = 0, No Iterations 0
diagonal:  Solving for T, Initial residual = 0, Final residual = 0, No Iterations 0
diagonal:  Solving for T, Initial residual = 0, Final residual = 0, No Iterations 0
 T goes from min(T) [0 0 0 0 0 0 0] 1.24238e-20 to max(T) [0 0 0 0 0 0 0] 0.953013

ExecutionTime = 81.16 s  ClockTime = 81 s

Time = 0.6
Courant Number mean: 0.362089 max: 0.701166
diagonal:  Solving for T, Initial residual = 0, Final residual = 0, No Iterations 0
diagonal:  Solving for T, Initial residual = 0, Final residual = 0, No Iterations 0
diagonal:  Solving for T, Initial residual = 0, Final residual = 0, No Iterations 0
diagonal:  Solving for T, Initial residual = 0, Final residual = 0, No Iterations 0
 T goes from min(T) [0 0 0 0 0 0 0] 1.22623e-20 to max(T) [0 0 0 0 0 0 0] 0.95333

ExecutionTime = 81.8 s  ClockTime = 82 s

Time = 0.605
Courant Number mean: 0.361892 max: 0.700572
diagonal:  Solving for T, Initial residual = 0, Final residual = 0, No Iterations 0
diagonal:  Solving for T, Initial residual = 0, Final residual = 0, No Iterations 0
diagonal:  Solving for T, Initial residual = 0, Final residual = 0, No Iterations 0
diagonal:  Solving for T, Initial residual = 0, Final residual = 0, No Iterations 0
 T goes from min(T) [0 0 0 0 0 0 0] 1.2572e-20 to max(T) [0 0 0 0 0 0 0] 0.952757

ExecutionTime = 82.46 s  ClockTime = 82 s

Time = 0.61
Courant Number mean: 0.361679 max: 0.70001
diagonal:  Solving for T, Initial residual = 0, Final residual = 0, No Iterations 0
diagonal:  Solving for T, Initial residual = 0, Final residual = 0, No Iterations 0
diagonal:  Solving for T, Initial residual = 0, Final residual = 0, No Iterations 0
diagonal:  Solving for T, Initial residual = 0, Final residual = 0, No Iterations 0
 T goes from min(T) [0 0 0 0 0 0 0] 1.32036e-20 to max(T) [0 0 0 0 0 0 0] 0.952319

ExecutionTime = 83.12 s  ClockTime = 83 s

Time = 0.615
Courant Number mean: 0.361452 max: 0.699404
diagonal:  Solving for T, Initial residual = 0, Final residual = 0, No Iterations 0
diagonal:  Solving for T, Initial residual = 0, Final residual = 0, No Iterations 0
diagonal:  Solving for T, Initial residual = 0, Final residual = 0, No Iterations 0
diagonal:  Solving for T, Initial residual = 0, Final residual = 0, No Iterations 0
 T goes from min(T) [0 0 0 0 0 0 0] 1.25522e-20 to max(T) [0 0 0 0 0 0 0] 0.951286

ExecutionTime = 83.76 s  ClockTime = 84 s

Time = 0.62
Courant Number mean: 0.361272 max: 0.698836
diagonal:  Solving for T, Initial residual = 0, Final residual = 0, No Iterations 0
diagonal:  Solving for T, Initial residual = 0, Final residual = 0, No Iterations 0
diagonal:  Solving for T, Initial residual = 0, Final residual = 0, No Iterations 0
diagonal:  Solving for T, Initial residual = 0, Final residual = 0, No Iterations 0
 T goes from min(T) [0 0 0 0 0 0 0] 1.23636e-20 to max(T) [0 0 0 0 0 0 0] 0.952445

ExecutionTime = 84.4 s  ClockTime = 84 s

Time = 0.625
Courant Number mean: 0.361073 max: 0.698216
diagonal:  Solving for T, Initial residual = 0, Final residual = 0, No Iterations 0
diagonal:  Solving for T, Initial residual = 0, Final residual = 0, No Iterations 0
diagonal:  Solving for T, Initial residual = 0, Final residual = 0, No Iterations 0
diagonal:  Solving for T, Initial residual = 0, Final residual = 0, No Iterations 0
 T goes from min(T) [0 0 0 0 0 0 0] 1.26448e-20 to max(T) [0 0 0 0 0 0 0] 0.952826

ExecutionTime = 85.04 s  ClockTime = 85 s

Time = 0.63
Courant Number mean: 0.360856 max: 0.697644
diagonal:  Solving for T, Initial residual = 0, Final residual = 0, No Iterations 0
diagonal:  Solving for T, Initial residual = 0, Final residual = 0, No Iterations 0
diagonal:  Solving for T, Initial residual = 0, Final residual = 0, No Iterations 0
diagonal:  Solving for T, Initial residual = 0, Final residual = 0, No Iterations 0
 T goes from min(T) [0 0 0 0 0 0 0] 1.33586e-20 to max(T) [0 0 0 0 0 0 0] 0.953123

ExecutionTime = 85.68 s  ClockTime = 86 s

Time = 0.635
Courant Number mean: 0.360619 max: 0.697019
diagonal:  Solving for T, Initial residual = 0, Final residual = 0, No Iterations 0
diagonal:  Solving for T, Initial residual = 0, Final residual = 0, No Iterations 0
diagonal:  Solving for T, Initial residual = 0, Final residual = 0, No Iterations 0
diagonal:  Solving for T, Initial residual = 0, Final residual = 0, No Iterations 0
 T goes from min(T) [0 0 0 0 0 0 0] 1.26809e-20 to max(T) [0 0 0 0 0 0 0] 0.952846

ExecutionTime = 86.32 s  ClockTime = 86 s

Time = 0.64
Courant Number mean: 0.360431 max: 0.696433
diagonal:  Solving for T, Initial residual = 0, Final residual = 0, No Iterations 0
diagonal:  Solving for T, Initial residual = 0, Final residual = 0, No Iterations 0
diagonal:  Solving for T, Initial residual = 0, Final residual = 0, No Iterations 0
diagonal:  Solving for T, Initial residual = 0, Final residual = 0, No Iterations 0
 T goes from min(T) [0 0 0 0 0 0 0] 1.24654e-20 to max(T) [0 0 0 0 0 0 0] 0.952328

ExecutionTime = 86.97 s  ClockTime = 87 s

Time = 0.645
Courant Number mean: 0.36023 max: 0.695802
diagonal:  Solving for T, Initial residual = 0, Final residual = 0, No Iterations 0
diagonal:  Solving for T, Initial residual = 0, Final residual = 0, No Iterations 0
diagonal:  Solving for T, Initial residual = 0, Final residual = 0, No Iterations 0
diagonal:  Solving for T, Initial residual = 0, Final residual = 0, No Iterations 0
 T goes from min(T) [0 0 0 0 0 0 0] 1.27183e-20 to max(T) [0 0 0 0 0 0 0] 0.95154

ExecutionTime = 87.61 s  ClockTime = 87 s

Time = 0.65
Courant Number mean: 0.36001 max: 0.695203
diagonal:  Solving for T, Initial residual = 0, Final residual = 0, No Iterations 0
diagonal:  Solving for T, Initial residual = 0, Final residual = 0, No Iterations 0
diagonal:  Solving for T, Initial residual = 0, Final residual = 0, No Iterations 0
diagonal:  Solving for T, Initial residual = 0, Final residual = 0, No Iterations 0
 T goes from min(T) [0 0 0 0 0 0 0] 1.34561e-20 to max(T) [0 0 0 0 0 0 0] 0.951271

ExecutionTime = 88.26 s  ClockTime = 88 s

Time = 0.655
Courant Number mean: 0.35977 max: 0.694569
diagonal:  Solving for T, Initial residual = 0, Final residual = 0, No Iterations 0
diagonal:  Solving for T, Initial residual = 0, Final residual = 0, No Iterations 0
diagonal:  Solving for T, Initial residual = 0, Final residual = 0, No Iterations 0
diagonal:  Solving for T, Initial residual = 0, Final residual = 0, No Iterations 0
 T goes from min(T) [0 0 0 0 0 0 0] 1.28098e-20 to max(T) [0 0 0 0 0 0 0] 0.952084

ExecutionTime = 88.9 s  ClockTime = 89 s

Time = 0.66
Courant Number mean: 0.359567 max: 0.693956
diagonal:  Solving for T, Initial residual = 0, Final residual = 0, No Iterations 0
diagonal:  Solving for T, Initial residual = 0, Final residual = 0, No Iterations 0
diagonal:  Solving for T, Initial residual = 0, Final residual = 0, No Iterations 0
diagonal:  Solving for T, Initial residual = 0, Final residual = 0, No Iterations 0
 T goes from min(T) [0 0 0 0 0 0 0] 1.25676e-20 to max(T) [0 0 0 0 0 0 0] 0.952744

ExecutionTime = 89.54 s  ClockTime = 89 s

Time = 0.665
Courant Number mean: 0.359364 max: 0.693315
diagonal:  Solving for T, Initial residual = 0, Final residual = 0, No Iterations 0
diagonal:  Solving for T, Initial residual = 0, Final residual = 0, No Iterations 0
diagonal:  Solving for T, Initial residual = 0, Final residual = 0, No Iterations 0
diagonal:  Solving for T, Initial residual = 0, Final residual = 0, No Iterations 0
 T goes from min(T) [0 0 0 0 0 0 0] 1.27925e-20 to max(T) [0 0 0 0 0 0 0] 0.952636

ExecutionTime = 90.18 s  ClockTime = 90 s

Time = 0.67
Courant Number mean: 0.359141 max: 0.69269
diagonal:  Solving for T, Initial residual = 0, Final residual = 0, No Iterations 0
diagonal:  Solving for T, Initial residual = 0, Final residual = 0, No Iterations 0
diagonal:  Solving for T, Initial residual = 0, Final residual = 0, No Iterations 0
diagonal:  Solving for T, Initial residual = 0, Final residual = 0, No Iterations 0
 T goes from min(T) [0 0 0 0 0 0 0] 1.35003e-20 to max(T) [0 0 0 0 0 0 0] 0.952633

ExecutionTime = 90.82 s  ClockTime = 91 s

Time = 0.675
Courant Number mean: 0.3589 max: 0.692045
diagonal:  Solving for T, Initial residual = 0, Final residual = 0, No Iterations 0
diagonal:  Solving for T, Initial residual = 0, Final residual = 0, No Iterations 0
diagonal:  Solving for T, Initial residual = 0, Final residual = 0, No Iterations 0
diagonal:  Solving for T, Initial residual = 0, Final residual = 0, No Iterations 0
 T goes from min(T) [0 0 0 0 0 0 0] 1.29389e-20 to max(T) [0 0 0 0 0 0 0] 0.951895

ExecutionTime = 91.46 s  ClockTime = 91 s

Time = 0.68
Courant Number mean: 0.358682 max: 0.691406
diagonal:  Solving for T, Initial residual = 0, Final residual = 0, No Iterations 0
diagonal:  Solving for T, Initial residual = 0, Final residual = 0, No Iterations 0
diagonal:  Solving for T, Initial residual = 0, Final residual = 0, No Iterations 0
diagonal:  Solving for T, Initial residual = 0, Final residual = 0, No Iterations 0
 T goes from min(T) [0 0 0 0 0 0 0] 1.26701e-20 to max(T) [0 0 0 0 0 0 0] 0.951143

ExecutionTime = 92.11 s  ClockTime = 92 s

Time = 0.685
Courant Number mean: 0.358477 max: 0.690756
diagonal:  Solving for T, Initial residual = 0, Final residual = 0, No Iterations 0
diagonal:  Solving for T, Initial residual = 0, Final residual = 0, No Iterations 0
diagonal:  Solving for T, Initial residual = 0, Final residual = 0, No Iterations 0
diagonal:  Solving for T, Initial residual = 0, Final residual = 0, No Iterations 0
 T goes from min(T) [0 0 0 0 0 0 0] 1.28673e-20 to max(T) [0 0 0 0 0 0 0] 0.950064

ExecutionTime = 92.76 s  ClockTime = 93 s

Time = 0.69
Courant Number mean: 0.358251 max: 0.690103
diagonal:  Solving for T, Initial residual = 0, Final residual = 0, No Iterations 0
diagonal:  Solving for T, Initial residual = 0, Final residual = 0, No Iterations 0
diagonal:  Solving for T, Initial residual = 0, Final residual = 0, No Iterations 0
diagonal:  Solving for T, Initial residual = 0, Final residual = 0, No Iterations 0
 T goes from min(T) [0 0 0 0 0 0 0] 1.35454e-20 to max(T) [0 0 0 0 0 0 0] 0.951276

ExecutionTime = 93.4 s  ClockTime = 93 s

Time = 0.695
Courant Number mean: 0.358008 max: 0.689449
diagonal:  Solving for T, Initial residual = 0, Final residual = 0, No Iterations 0
diagonal:  Solving for T, Initial residual = 0, Final residual = 0, No Iterations 0
diagonal:  Solving for T, Initial residual = 0, Final residual = 0, No Iterations 0
diagonal:  Solving for T, Initial residual = 0, Final residual = 0, No Iterations 0
 T goes from min(T) [0 0 0 0 0 0 0] 1.30682e-20 to max(T) [0 0 0 0 0 0 0] 0.952106

ExecutionTime = 94.05 s  ClockTime = 94 s

Time = 0.7
Courant Number mean: 0.357776 max: 0.688783
diagonal:  Solving for T, Initial residual = 0, Final residual = 0, No Iterations 0
diagonal:  Solving for T, Initial residual = 0, Final residual = 0, No Iterations 0
diagonal:  Solving for T, Initial residual = 0, Final residual = 0, No Iterations 0
diagonal:  Solving for T, Initial residual = 0, Final residual = 0, No Iterations 0
 T goes from min(T) [0 0 0 0 0 0 0] 1.2773e-20 to max(T) [0 0 0 0 0 0 0] 0.952369

ExecutionTime = 94.69 s  ClockTime = 95 s

Time = 0.705
Courant Number mean: 0.357567 max: 0.688123
diagonal:  Solving for T, Initial residual = 0, Final residual = 0, No Iterations 0
diagonal:  Solving for T, Initial residual = 0, Final residual = 0, No Iterations 0
diagonal:  Solving for T, Initial residual = 0, Final residual = 0, No Iterations 0
diagonal:  Solving for T, Initial residual = 0, Final residual = 0, No Iterations 0
 T goes from min(T) [0 0 0 0 0 0 0] 1.29426e-20 to max(T) [0 0 0 0 0 0 0] 0.952444

ExecutionTime = 95.34 s  ClockTime = 95 s

Time = 0.71
Courant Number mean: 0.357339 max: 0.687445
diagonal:  Solving for T, Initial residual = 0, Final residual = 0, No Iterations 0
diagonal:  Solving for T, Initial residual = 0, Final residual = 0, No Iterations 0
diagonal:  Solving for T, Initial residual = 0, Final residual = 0, No Iterations 0
diagonal:  Solving for T, Initial residual = 0, Final residual = 0, No Iterations 0
 T goes from min(T) [0 0 0 0 0 0 0] 1.35912e-20 to max(T) [0 0 0 0 0 0 0] 0.951856

ExecutionTime = 95.98 s  ClockTime = 96 s

Time = 0.715
Courant Number mean: 0.357094 max: 0.68678
diagonal:  Solving for T, Initial residual = 0, Final residual = 0, No Iterations 0
diagonal:  Solving for T, Initial residual = 0, Final residual = 0, No Iterations 0
diagonal:  Solving for T, Initial residual = 0, Final residual = 0, No Iterations 0
diagonal:  Solving for T, Initial residual = 0, Final residual = 0, No Iterations 0
 T goes from min(T) [0 0 0 0 0 0 0] 1.31975e-20 to max(T) [0 0 0 0 0 0 0] 0.951287

ExecutionTime = 96.62 s  ClockTime = 97 s

Time = 0.72
Courant Number mean: 0.356847 max: 0.686089
diagonal:  Solving for T, Initial residual = 0, Final residual = 0, No Iterations 0
diagonal:  Solving for T, Initial residual = 0, Final residual = 0, No Iterations 0
diagonal:  Solving for T, Initial residual = 0, Final residual = 0, No Iterations 0
diagonal:  Solving for T, Initial residual = 0, Final residual = 0, No Iterations 0
 T goes from min(T) [0 0 0 0 0 0 0] 1.28762e-20 to max(T) [0 0 0 0 0 0 0] 0.950221

ExecutionTime = 97.25 s  ClockTime = 97 s

Time = 0.725
Courant Number mean: 0.356635 max: 0.685419
diagonal:  Solving for T, Initial residual = 0, Final residual = 0, No Iterations 0
diagonal:  Solving for T, Initial residual = 0, Final residual = 0, No Iterations 0
diagonal:  Solving for T, Initial residual = 0, Final residual = 0, No Iterations 0
diagonal:  Solving for T, Initial residual = 0, Final residual = 0, No Iterations 0
 T goes from min(T) [0 0 0 0 0 0 0] 1.30184e-20 to max(T) [0 0 0 0 0 0 0] 0.948842

ExecutionTime = 97.9 s  ClockTime = 98 s

Time = 0.73
Courant Number mean: 0.356405 max: 0.684714
diagonal:  Solving for T, Initial residual = 0, Final residual = 0, No Iterations 0
diagonal:  Solving for T, Initial residual = 0, Final residual = 0, No Iterations 0
diagonal:  Solving for T, Initial residual = 0, Final residual = 0, No Iterations 0
diagonal:  Solving for T, Initial residual = 0, Final residual = 0, No Iterations 0
 T goes from min(T) [0 0 0 0 0 0 0] 1.36378e-20 to max(T) [0 0 0 0 0 0 0] 0.950243

ExecutionTime = 98.54 s  ClockTime = 98 s

Time = 0.735
Courant Number mean: 0.356157 max: 0.68404
diagonal:  Solving for T, Initial residual = 0, Final residual = 0, No Iterations 0
diagonal:  Solving for T, Initial residual = 0, Final residual = 0, No Iterations 0
diagonal:  Solving for T, Initial residual = 0, Final residual = 0, No Iterations 0
diagonal:  Solving for T, Initial residual = 0, Final residual = 0, No Iterations 0
 T goes from min(T) [0 0 0 0 0 0 0] 1.33269e-20 to max(T) [0 0 0 0 0 0 0] 0.951314

ExecutionTime = 99.19 s  ClockTime = 99 s

Time = 0.74
Courant Number mean: 0.355896 max: 0.683323
diagonal:  Solving for T, Initial residual = 0, Final residual = 0, No Iterations 0
diagonal:  Solving for T, Initial residual = 0, Final residual = 0, No Iterations 0
diagonal:  Solving for T, Initial residual = 0, Final residual = 0, No Iterations 0
diagonal:  Solving for T, Initial residual = 0, Final residual = 0, No Iterations 0
 T goes from min(T) [0 0 0 0 0 0 0] 1.29796e-20 to max(T) [0 0 0 0 0 0 0] 0.951848

ExecutionTime = 99.82 s  ClockTime = 100 s

Time = 0.745
Courant Number mean: 0.355683 max: 0.682643
diagonal:  Solving for T, Initial residual = 0, Final residual = 0, No Iterations 0
diagonal:  Solving for T, Initial residual = 0, Final residual = 0, No Iterations 0
diagonal:  Solving for T, Initial residual = 0, Final residual = 0, No Iterations 0
diagonal:  Solving for T, Initial residual = 0, Final residual = 0, No Iterations 0
 T goes from min(T) [0 0 0 0 0 0 0] 1.30946e-20 to max(T) [0 0 0 0 0 0 0] 0.952028

ExecutionTime = 100.46 s  ClockTime = 100 s

Time = 0.75
Courant Number mean: 0.35545 max: 0.681912
diagonal:  Solving for T, Initial residual = 0, Final residual = 0, No Iterations 0
diagonal:  Solving for T, Initial residual = 0, Final residual = 0, No Iterations 0
diagonal:  Solving for T, Initial residual = 0, Final residual = 0, No Iterations 0
diagonal:  Solving for T, Initial residual = 0, Final residual = 0, No Iterations 0
 T goes from min(T) [0 0 0 0 0 0 0] 1.3685e-20 to max(T) [0 0 0 0 0 0 0] 0.951614

ExecutionTime = 101.11 s  ClockTime = 101 s

Time = 0.755
Courant Number mean: 0.3552 max: 0.681228
diagonal:  Solving for T, Initial residual = 0, Final residual = 0, No Iterations 0
diagonal:  Solving for T, Initial residual = 0, Final residual = 0, No Iterations 0
diagonal:  Solving for T, Initial residual = 0, Final residual = 0, No Iterations 0
diagonal:  Solving for T, Initial residual = 0, Final residual = 0, No Iterations 0
 T goes from min(T) [0 0 0 0 0 0 0] 1.34563e-20 to max(T) [0 0 0 0 0 0 0] 0.951098

[...]
diagonal:  Solving for T, Initial residual = 0, Final residual = 0, No Iterations 0
 T goes from min(T) [0 0 0 0 0 0 0] -0.109086 to max(T) [0 0 0 0 0 0 0] 0.905425

ExecutionTime = 817.45 s  ClockTime = 821 s

Time = 5.815
Courant Number mean: 0.352207 max: 0.672368
diagonal:  Solving for T, Initial residual = 0, Final residual = 0, No Iterations 0
diagonal:  Solving for T, Initial residual = 0, Final residual = 0, No Iterations 0
diagonal:  Solving for T, Initial residual = 0, Final residual = 0, No Iterations 0
diagonal:  Solving for T, Initial residual = 0, Final residual = 0, No Iterations 0
 T goes from min(T) [0 0 0 0 0 0 0] -0.107694 to max(T) [0 0 0 0 0 0 0] 0.904915

ExecutionTime = 818.07 s  ClockTime = 822 s

Time = 5.82
Courant Number mean: 0.351932 max: 0.671605
diagonal:  Solving for T, Initial residual = 0, Final residual = 0, No Iterations 0
diagonal:  Solving for T, Initial residual = 0, Final residual = 0, No Iterations 0
diagonal:  Solving for T, Initial residual = 0, Final residual = 0, No Iterations 0
diagonal:  Solving for T, Initial residual = 0, Final residual = 0, No Iterations 0
 T goes from min(T) [0 0 0 0 0 0 0] -0.10785 to max(T) [0 0 0 0 0 0 0] 0.90427

ExecutionTime = 818.68 s  ClockTime = 822 s

Time = 5.825
Courant Number mean: 0.351669 max: 0.670831
diagonal:  Solving for T, Initial residual = 0, Final residual = 0, No Iterations 0
diagonal:  Solving for T, Initial residual = 0, Final residual = 0, No Iterations 0
diagonal:  Solving for T, Initial residual = 0, Final residual = 0, No Iterations 0
diagonal:  Solving for T, Initial residual = 0, Final residual = 0, No Iterations 0
 T goes from min(T) [0 0 0 0 0 0 0] -0.108972 to max(T) [0 0 0 0 0 0 0] 0.903495

ExecutionTime = 819.31 s  ClockTime = 823 s

Time = 5.83
Courant Number mean: 0.35143 max: 0.670062
diagonal:  Solving for T, Initial residual = 0, Final residual = 0, No Iterations 0
diagonal:  Solving for T, Initial residual = 0, Final residual = 0, No Iterations 0
diagonal:  Solving for T, Initial residual = 0, Final residual = 0, No Iterations 0
diagonal:  Solving for T, Initial residual = 0, Final residual = 0, No Iterations 0
 T goes from min(T) [0 0 0 0 0 0 0] -0.108721 to max(T) [0 0 0 0 0 0 0] 0.903812

ExecutionTime = 819.92 s  ClockTime = 824 s

Time = 5.835
Courant Number mean: 0.351172 max: 0.669275
diagonal:  Solving for T, Initial residual = 0, Final residual = 0, No Iterations 0
diagonal:  Solving for T, Initial residual = 0, Final residual = 0, No Iterations 0
diagonal:  Solving for T, Initial residual = 0, Final residual = 0, No Iterations 0
diagonal:  Solving for T, Initial residual = 0, Final residual = 0, No Iterations 0
 T goes from min(T) [0 0 0 0 0 0 0] -0.107329 to max(T) [0 0 0 0 0 0 0] 0.904167

ExecutionTime = 820.54 s  ClockTime = 824 s

Time = 5.84
Courant Number mean: 0.350897 max: 0.668502
diagonal:  Solving for T, Initial residual = 0, Final residual = 0, No Iterations 0
diagonal:  Solving for T, Initial residual = 0, Final residual = 0, No Iterations 0
diagonal:  Solving for T, Initial residual = 0, Final residual = 0, No Iterations 0
diagonal:  Solving for T, Initial residual = 0, Final residual = 0, No Iterations 0
 T goes from min(T) [0 0 0 0 0 0 0] -0.107747 to max(T) [0 0 0 0 0 0 0] 0.904337

ExecutionTime = 821.16 s  ClockTime = 825 s

Time = 5.845
Courant Number mean: 0.350621 max: 0.667704
diagonal:  Solving for T, Initial residual = 0, Final residual = 0, No Iterations 0
diagonal:  Solving for T, Initial residual = 0, Final residual = 0, No Iterations 0
diagonal:  Solving for T, Initial residual = 0, Final residual = 0, No Iterations 0
diagonal:  Solving for T, Initial residual = 0, Final residual = 0, No Iterations 0
 T goes from min(T) [0 0 0 0 0 0 0] -0.108689 to max(T) [0 0 0 0 0 0 0] 0.904333

ExecutionTime = 821.77 s  ClockTime = 826 s

Time = 5.85
Courant Number mean: 0.350379 max: 0.666925
diagonal:  Solving for T, Initial residual = 0, Final residual = 0, No Iterations 0
diagonal:  Solving for T, Initial residual = 0, Final residual = 0, No Iterations 0
diagonal:  Solving for T, Initial residual = 0, Final residual = 0, No Iterations 0
diagonal:  Solving for T, Initial residual = 0, Final residual = 0, No Iterations 0
 T goes from min(T) [0 0 0 0 0 0 0] -0.108388 to max(T) [0 0 0 0 0 0 0] 0.904165

ExecutionTime = 822.39 s  ClockTime = 826 s

Time = 5.855
Courant Number mean: 0.35012 max: 0.666114
diagonal:  Solving for T, Initial residual = 0, Final residual = 0, No Iterations 0
diagonal:  Solving for T, Initial residual = 0, Final residual = 0, No Iterations 0
diagonal:  Solving for T, Initial residual = 0, Final residual = 0, No Iterations 0
diagonal:  Solving for T, Initial residual = 0, Final residual = 0, No Iterations 0
 T goes from min(T) [0 0 0 0 0 0 0] -0.107069 to max(T) [0 0 0 0 0 0 0] 0.903943

ExecutionTime = 823.01 s  ClockTime = 827 s

Time = 5.86
Courant Number mean: 0.349843 max: 0.665331
diagonal:  Solving for T, Initial residual = 0, Final residual = 0, No Iterations 0
diagonal:  Solving for T, Initial residual = 0, Final residual = 0, No Iterations 0
diagonal:  Solving for T, Initial residual = 0, Final residual = 0, No Iterations 0
diagonal:  Solving for T, Initial residual = 0, Final residual = 0, No Iterations 0
 T goes from min(T) [0 0 0 0 0 0 0] -0.107538 to max(T) [0 0 0 0 0 0 0] 0.903599

ExecutionTime = 823.62 s  ClockTime = 827 s

Time = 5.865
Courant Number mean: 0.349554 max: 0.664508
diagonal:  Solving for T, Initial residual = 0, Final residual = 0, No Iterations 0
diagonal:  Solving for T, Initial residual = 0, Final residual = 0, No Iterations 0
diagonal:  Solving for T, Initial residual = 0, Final residual = 0, No Iterations 0
diagonal:  Solving for T, Initial residual = 0, Final residual = 0, No Iterations 0
 T goes from min(T) [0 0 0 0 0 0 0] -0.108385 to max(T) [0 0 0 0 0 0 0] 0.903109

ExecutionTime = 824.25 s  ClockTime = 828 s

Time = 5.87
Courant Number mean: 0.34931 max: 0.66372
diagonal:  Solving for T, Initial residual = 0, Final residual = 0, No Iterations 0
diagonal:  Solving for T, Initial residual = 0, Final residual = 0, No Iterations 0
diagonal:  Solving for T, Initial residual = 0, Final residual = 0, No Iterations 0
diagonal:  Solving for T, Initial residual = 0, Final residual = 0, No Iterations 0
 T goes from min(T) [0 0 0 0 0 0 0] -0.108106 to max(T) [0 0 0 0 0 0 0] 0.902481

ExecutionTime = 824.87 s  ClockTime = 829 s

Time = 5.875
Courant Number mean: 0.34905 max: 0.662883
diagonal:  Solving for T, Initial residual = 0, Final residual = 0, No Iterations 0
diagonal:  Solving for T, Initial residual = 0, Final residual = 0, No Iterations 0
diagonal:  Solving for T, Initial residual = 0, Final residual = 0, No Iterations 0
diagonal:  Solving for T, Initial residual = 0, Final residual = 0, No Iterations 0
 T goes from min(T) [0 0 0 0 0 0 0] -0.107013 to max(T) [0 0 0 0 0 0 0] 0.901721

ExecutionTime = 825.48 s  ClockTime = 829 s

Time = 5.88
Courant Number mean: 0.348771 max: 0.662091
diagonal:  Solving for T, Initial residual = 0, Final residual = 0, No Iterations 0
diagonal:  Solving for T, Initial residual = 0, Final residual = 0, No Iterations 0
diagonal:  Solving for T, Initial residual = 0, Final residual = 0, No Iterations 0
diagonal:  Solving for T, Initial residual = 0, Final residual = 0, No Iterations 0
 T goes from min(T) [0 0 0 0 0 0 0] -0.107258 to max(T) [0 0 0 0 0 0 0] 0.900836

ExecutionTime = 826.1 s  ClockTime = 830 s

Time = 5.885
Courant Number mean: 0.348474 max: 0.661251
diagonal:  Solving for T, Initial residual = 0, Final residual = 0, No Iterations 0
diagonal:  Solving for T, Initial residual = 0, Final residual = 0, No Iterations 0
diagonal:  Solving for T, Initial residual = 0, Final residual = 0, No Iterations 0
diagonal:  Solving for T, Initial residual = 0, Final residual = 0, No Iterations 0
 T goes from min(T) [0 0 0 0 0 0 0] -0.108074 to max(T) [0 0 0 0 0 0 0] 0.901548

ExecutionTime = 826.72 s  ClockTime = 830 s

Time = 5.89
Courant Number mean: 0.348224 max: 0.660446
diagonal:  Solving for T, Initial residual = 0, Final residual = 0, No Iterations 0
diagonal:  Solving for T, Initial residual = 0, Final residual = 0, No Iterations 0
diagonal:  Solving for T, Initial residual = 0, Final residual = 0, No Iterations 0
diagonal:  Solving for T, Initial residual = 0, Final residual = 0, No Iterations 0
 T goes from min(T) [0 0 0 0 0 0 0] -0.107878 to max(T) [0 0 0 0 0 0 0] 0.902092

ExecutionTime = 827.33 s  ClockTime = 831 s

Time = 5.895
Courant Number mean: 0.347961 max: 0.659601
diagonal:  Solving for T, Initial residual = 0, Final residual = 0, No Iterations 0
diagonal:  Solving for T, Initial residual = 0, Final residual = 0, No Iterations 0
diagonal:  Solving for T, Initial residual = 0, Final residual = 0, No Iterations 0
diagonal:  Solving for T, Initial residual = 0, Final residual = 0, No Iterations 0
 T goes from min(T) [0 0 0 0 0 0 0] -0.107005 to max(T) [0 0 0 0 0 0 0] 0.902409

ExecutionTime = 827.95 s  ClockTime = 832 s

Time = 5.9
Courant Number mean: 0.347681 max: 0.658784
diagonal:  Solving for T, Initial residual = 0, Final residual = 0, No Iterations 0
diagonal:  Solving for T, Initial residual = 0, Final residual = 0, No Iterations 0
diagonal:  Solving for T, Initial residual = 0, Final residual = 0, No Iterations 0
diagonal:  Solving for T, Initial residual = 0, Final residual = 0, No Iterations 0
 T goes from min(T) [0 0 0 0 0 0 0] -0.106915 to max(T) [0 0 0 0 0 0 0] 0.902513

ExecutionTime = 828.56 s  ClockTime = 832 s

Time = 5.905
Courant Number mean: 0.347385 max: 0.657934
diagonal:  Solving for T, Initial residual = 0, Final residual = 0, No Iterations 0
diagonal:  Solving for T, Initial residual = 0, Final residual = 0, No Iterations 0
diagonal:  Solving for T, Initial residual = 0, Final residual = 0, No Iterations 0
diagonal:  Solving for T, Initial residual = 0, Final residual = 0, No Iterations 0
 T goes from min(T) [0 0 0 0 0 0 0] -0.107759 to max(T) [0 0 0 0 0 0 0] 0.902417

ExecutionTime = 829.18 s  ClockTime = 833 s

Time = 5.91
Courant Number mean: 0.347121 max: 0.657105
diagonal:  Solving for T, Initial residual = 0, Final residual = 0, No Iterations 0
diagonal:  Solving for T, Initial residual = 0, Final residual = 0, No Iterations 0
diagonal:  Solving for T, Initial residual = 0, Final residual = 0, No Iterations 0
diagonal:  Solving for T, Initial residual = 0, Final residual = 0, No Iterations 0
 T goes from min(T) [0 0 0 0 0 0 0] -0.107693 to max(T) [0 0 0 0 0 0 0] 0.902301

ExecutionTime = 829.8 s  ClockTime = 834 s

Time = 5.915
Courant Number mean: 0.346856 max: 0.65625
diagonal:  Solving for T, Initial residual = 0, Final residual = 0, No Iterations 0
diagonal:  Solving for T, Initial residual = 0, Final residual = 0, No Iterations 0
diagonal:  Solving for T, Initial residual = 0, Final residual = 0, No Iterations 0
diagonal:  Solving for T, Initial residual = 0, Final residual = 0, No Iterations 0
 T goes from min(T) [0 0 0 0 0 0 0] -0.107 to max(T) [0 0 0 0 0 0 0] 0.902017

ExecutionTime = 830.42 s  ClockTime = 834 s

Time = 5.92
Courant Number mean: 0.346575 max: 0.655409
diagonal:  Solving for T, Initial residual = 0, Final residual = 0, No Iterations 0
diagonal:  Solving for T, Initial residual = 0, Final residual = 0, No Iterations 0
diagonal:  Solving for T, Initial residual = 0, Final residual = 0, No Iterations 0
diagonal:  Solving for T, Initial residual = 0, Final residual = 0, No Iterations 0
 T goes from min(T) [0 0 0 0 0 0 0] -0.10651 to max(T) [0 0 0 0 0 0 0] 0.901572

ExecutionTime = 831.04 s  ClockTime = 835 s

Time = 5.925
Courant Number mean: 0.346278 max: 0.65455
diagonal:  Solving for T, Initial residual = 0, Final residual = 0, No Iterations 0
diagonal:  Solving for T, Initial residual = 0, Final residual = 0, No Iterations 0
diagonal:  Solving for T, Initial residual = 0, Final residual = 0, No Iterations 0
diagonal:  Solving for T, Initial residual = 0, Final residual = 0, No Iterations 0
 T goes from min(T) [0 0 0 0 0 0 0] -0.107427 to max(T) [0 0 0 0 0 0 0] 0.900976

ExecutionTime = 831.69 s  ClockTime = 835 s

Time = 5.93
Courant Number mean: 0.346001 max: 0.653697
diagonal:  Solving for T, Initial residual = 0, Final residual = 0, No Iterations 0
diagonal:  Solving for T, Initial residual = 0, Final residual = 0, No Iterations 0
diagonal:  Solving for T, Initial residual = 0, Final residual = 0, No Iterations 0
diagonal:  Solving for T, Initial residual = 0, Final residual = 0, No Iterations 0
 T goes from min(T) [0 0 0 0 0 0 0] -0.107526 to max(T) [0 0 0 0 0 0 0] 0.900239

ExecutionTime = 832.3 s  ClockTime = 836 s

Time = 5.935
Courant Number mean: 0.345736 max: 0.652833
diagonal:  Solving for T, Initial residual = 0, Final residual = 0, No Iterations 0
diagonal:  Solving for T, Initial residual = 0, Final residual = 0, No Iterations 0
diagonal:  Solving for T, Initial residual = 0, Final residual = 0, No Iterations 0
diagonal:  Solving for T, Initial residual = 0, Final residual = 0, No Iterations 0
 T goes from min(T) [0 0 0 0 0 0 0] -0.106975 to max(T) [0 0 0 0 0 0 0] 0.899369

ExecutionTime = 832.92 s  ClockTime = 837 s

Time = 5.94
Courant Number mean: 0.345454 max: 0.651967
diagonal:  Solving for T, Initial residual = 0, Final residual = 0, No Iterations 0
diagonal:  Solving for T, Initial residual = 0, Final residual = 0, No Iterations 0
diagonal:  Solving for T, Initial residual = 0, Final residual = 0, No Iterations 0
diagonal:  Solving for T, Initial residual = 0, Final residual = 0, No Iterations 0
 T goes from min(T) [0 0 0 0 0 0 0] -0.106029 to max(T) [0 0 0 0 0 0 0] 0.898375

ExecutionTime = 833.54 s  ClockTime = 837 s

Time = 5.945
Courant Number mean: 0.345155 max: 0.6511
diagonal:  Solving for T, Initial residual = 0, Final residual = 0, No Iterations 0
diagonal:  Solving for T, Initial residual = 0, Final residual = 0, No Iterations 0
diagonal:  Solving for T, Initial residual = 0, Final residual = 0, No Iterations 0
diagonal:  Solving for T, Initial residual = 0, Final residual = 0, No Iterations 0
 T goes from min(T) [0 0 0 0 0 0 0] -0.107053 to max(T) [0 0 0 0 0 0 0] 0.897265

ExecutionTime = 834.17 s  ClockTime = 838 s

Time = 5.95
Courant Number mean: 0.344867 max: 0.650222
diagonal:  Solving for T, Initial residual = 0, Final residual = 0, No Iterations 0
diagonal:  Solving for T, Initial residual = 0, Final residual = 0, No Iterations 0
diagonal:  Solving for T, Initial residual = 0, Final residual = 0, No Iterations 0
diagonal:  Solving for T, Initial residual = 0, Final residual = 0, No Iterations 0
 T goes from min(T) [0 0 0 0 0 0 0] -0.107336 to max(T) [0 0 0 0 0 0 0] 0.898267

ExecutionTime = 834.79 s  ClockTime = 839 s

Time = 5.955
Courant Number mean: 0.344602 max: 0.649349
diagonal:  Solving for T, Initial residual = 0, Final residual = 0, No Iterations 0
diagonal:  Solving for T, Initial residual = 0, Final residual = 0, No Iterations 0
diagonal:  Solving for T, Initial residual = 0, Final residual = 0, No Iterations 0
diagonal:  Solving for T, Initial residual = 0, Final residual = 0, No Iterations 0
 T goes from min(T) [0 0 0 0 0 0 0] -0.107029 to max(T) [0 0 0 0 0 0 0] 0.899185

ExecutionTime = 835.41 s  ClockTime = 839 s

Time = 5.96
Courant Number mean: 0.34432 max: 0.648459
diagonal:  Solving for T, Initial residual = 0, Final residual = 0, No Iterations 0
diagonal:  Solving for T, Initial residual = 0, Final residual = 0, No Iterations 0
diagonal:  Solving for T, Initial residual = 0, Final residual = 0, No Iterations 0
diagonal:  Solving for T, Initial residual = 0, Final residual = 0, No Iterations 0
 T goes from min(T) [0 0 0 0 0 0 0] -0.106271 to max(T) [0 0 0 0 0 0 0] 0.899808

ExecutionTime = 836.02 s  ClockTime = 840 s

Time = 5.965
Courant Number mean: 0.34402 max: 0.647583
diagonal:  Solving for T, Initial residual = 0, Final residual = 0, No Iterations 0
diagonal:  Solving for T, Initial residual = 0, Final residual = 0, No Iterations 0
diagonal:  Solving for T, Initial residual = 0, Final residual = 0, No Iterations 0
diagonal:  Solving for T, Initial residual = 0, Final residual = 0, No Iterations 0
 T goes from min(T) [0 0 0 0 0 0 0] -0.106598 to max(T) [0 0 0 0 0 0 0] 0.900153

ExecutionTime = 836.65 s  ClockTime = 840 s

Time = 5.97
Courant Number mean: 0.343722 max: 0.646681
diagonal:  Solving for T, Initial residual = 0, Final residual = 0, No Iterations 0
diagonal:  Solving for T, Initial residual = 0, Final residual = 0, No Iterations 0
diagonal:  Solving for T, Initial residual = 0, Final residual = 0, No Iterations 0
diagonal:  Solving for T, Initial residual = 0, Final residual = 0, No Iterations 0
 T goes from min(T) [0 0 0 0 0 0 0] -0.107069 to max(T) [0 0 0 0 0 0 0] 0.900238

ExecutionTime = 837.27 s  ClockTime = 841 s

Time = 5.975
Courant Number mean: 0.343454 max: 0.6458
diagonal:  Solving for T, Initial residual = 0, Final residual = 0, No Iterations 0
diagonal:  Solving for T, Initial residual = 0, Final residual = 0, No Iterations 0
diagonal:  Solving for T, Initial residual = 0, Final residual = 0, No Iterations 0
diagonal:  Solving for T, Initial residual = 0, Final residual = 0, No Iterations 0
 T goes from min(T) [0 0 0 0 0 0 0] -0.106995 to max(T) [0 0 0 0 0 0 0] 0.900171

ExecutionTime = 837.88 s  ClockTime = 842 s

Time = 5.98
Courant Number mean: 0.34317 max: 0.644886
diagonal:  Solving for T, Initial residual = 0, Final residual = 0, No Iterations 0
diagonal:  Solving for T, Initial residual = 0, Final residual = 0, No Iterations 0
diagonal:  Solving for T, Initial residual = 0, Final residual = 0, No Iterations 0
diagonal:  Solving for T, Initial residual = 0, Final residual = 0, No Iterations 0
 T goes from min(T) [0 0 0 0 0 0 0] -0.106494 to max(T) [0 0 0 0 0 0 0] 0.899933

ExecutionTime = 838.5 s  ClockTime = 842 s

Time = 5.985
Courant Number mean: 0.342872 max: 0.644
diagonal:  Solving for T, Initial residual = 0, Final residual = 0, No Iterations 0
diagonal:  Solving for T, Initial residual = 0, Final residual = 0, No Iterations 0
diagonal:  Solving for T, Initial residual = 0, Final residual = 0, No Iterations 0
diagonal:  Solving for T, Initial residual = 0, Final residual = 0, No Iterations 0
 T goes from min(T) [0 0 0 0 0 0 0] -0.106007 to max(T) [0 0 0 0 0 0 0] 0.899498

ExecutionTime = 839.11 s  ClockTime = 843 s

Time = 5.99
Courant Number mean: 0.342561 max: 0.643076
diagonal:  Solving for T, Initial residual = 0, Final residual = 0, No Iterations 0
diagonal:  Solving for T, Initial residual = 0, Final residual = 0, No Iterations 0
diagonal:  Solving for T, Initial residual = 0, Final residual = 0, No Iterations 0
diagonal:  Solving for T, Initial residual = 0, Final residual = 0, No Iterations 0
 T goes from min(T) [0 0 0 0 0 0 0] -0.106657 to max(T) [0 0 0 0 0 0 0] 0.89888

ExecutionTime = 839.72 s  ClockTime = 843 s

Time = 5.995
Courant Number mean: 0.342293 max: 0.642185
diagonal:  Solving for T, Initial residual = 0, Final residual = 0, No Iterations 0
diagonal:  Solving for T, Initial residual = 0, Final residual = 0, No Iterations 0
diagonal:  Solving for T, Initial residual = 0, Final residual = 0, No Iterations 0
diagonal:  Solving for T, Initial residual = 0, Final residual = 0, No Iterations 0
 T goes from min(T) [0 0 0 0 0 0 0] -0.106791 to max(T) [0 0 0 0 0 0 0] 0.898092

ExecutionTime = 840.34 s  ClockTime = 844 s

Time = 6
Courant Number mean: 0.342009 max: 0.641248
diagonal:  Solving for T, Initial residual = 0, Final residual = 0, No Iterations 0
diagonal:  Solving for T, Initial residual = 0, Final residual = 0, No Iterations 0
diagonal:  Solving for T, Initial residual = 0, Final residual = 0, No Iterations 0
diagonal:  Solving for T, Initial residual = 0, Final residual = 0, No Iterations 0
 T goes from min(T) [0 0 0 0 0 0 0] -0.106506 to max(T) [0 0 0 0 0 0 0] 0.897145

ExecutionTime = 840.95 s  ClockTime = 845 s

End

