/*---------------------------------------------------------------------------*\
| =========                 |                                                 |
| \\      /  F ield         | OpenFOAM: The Open Source CFD Toolbox           |
|  \\    /   O peration     | Version:  dev                                   |
|   \\  /    A nd           | Web:      www.OpenFOAM.org                      |
|    \\/     M anipulation  |                                                 |
\*---------------------------------------------------------------------------*/
Build  : dev-90f39e0d894d
Exec   : scalarDeformationWithGhosts implicit -case orthogonal/240x120/c05_implicit
Date   : May 23 2017
Time   : 20:31:05
Host   : "sws02hw.private.rdg.ac.uk"
PID    : 22878
Case   : orthogonal/240x120/c05_implicit
nProcs : 1
sigFpe : Enabling floating point exception trapping (FOAM_SIGFPE).
fileModificationChecking : Monitoring run-time modified files using timeStampMaster (fileModificationSkew 10)
allowSystemOperations : Allowing user-supplied system call operations

// * * * * * * * * * * * * * * * * * * * * * * * * * * * * * * * * * * * * * //
Create time

Create mesh for time = 0

Reading field T

Reading fields phi (compulsory), U and Uf (optional)

Calculating owner stencils
Calculating neighbour stencils

Calculating scalar transport

Courant Number mean: 0.187268 max: 0.367985
Time = 0.0025
Courant Number mean: 0.187267 max: 0.367995
DILUPBiCG:  Solving for T, Initial residual = 0.00336991, Final residual = 1.12434e-11, No Iterations 3
DILUPBiCG:  Solving for T, Initial residual = 6.06598e-06, Final residual = 3.50295e-11, No Iterations 2
DILUPBiCG:  Solving for T, Initial residual = 4.361e-09, Final residual = 4.361e-09, No Iterations 0
DILUPBiCG:  Solving for T, Initial residual = 4.361e-09, Final residual = 4.361e-09, No Iterations 0
 T goes from min(T) [0 0 0 0 0 0 0] 8.94231e-21 to max(T) [0 0 0 0 0 0 0] 0.953537

ExecutionTime = 7.77 s  ClockTime = 85 s

Time = 0.005
Courant Number mean: 0.187263 max: 0.367998
DILUPBiCG:  Solving for T, Initial residual = 0.0033698, Final residual = 1.11183e-11, No Iterations 3
DILUPBiCG:  Solving for T, Initial residual = 6.06628e-06, Final residual = 3.46189e-11, No Iterations 2
DILUPBiCG:  Solving for T, Initial residual = 4.36734e-09, Final residual = 4.36734e-09, No Iterations 0
DILUPBiCG:  Solving for T, Initial residual = 4.36734e-09, Final residual = 4.36734e-09, No Iterations 0
 T goes from min(T) [0 0 0 0 0 0 0] 8.60091e-21 to max(T) [0 0 0 0 0 0 0] 0.953919

ExecutionTime = 8.28 s  ClockTime = 95 s

Time = 0.0075
Courant Number mean: 0.187256 max: 0.367994
DILUPBiCG:  Solving for T, Initial residual = 0.00336975, Final residual = 1.09934e-11, No Iterations 3
DILUPBiCG:  Solving for T, Initial residual = 6.06724e-06, Final residual = 3.42087e-11, No Iterations 2
DILUPBiCG:  Solving for T, Initial residual = 4.37667e-09, Final residual = 4.37667e-09, No Iterations 0
DILUPBiCG:  Solving for T, Initial residual = 4.37667e-09, Final residual = 4.37667e-09, No Iterations 0
 T goes from min(T) [0 0 0 0 0 0 0] 8.3945e-21 to max(T) [0 0 0 0 0 0 0] 0.954037

ExecutionTime = 8.77 s  ClockTime = 104 s

Time = 0.01
Courant Number mean: 0.187247 max: 0.367982
DILUPBiCG:  Solving for T, Initial residual = 0.00336939, Final residual = 1.08664e-11, No Iterations 3
DILUPBiCG:  Solving for T, Initial residual = 6.06876e-06, Final residual = 3.38017e-11, No Iterations 2
DILUPBiCG:  Solving for T, Initial residual = 4.38552e-09, Final residual = 4.38552e-09, No Iterations 0
DILUPBiCG:  Solving for T, Initial residual = 4.38552e-09, Final residual = 4.38552e-09, No Iterations 0
 T goes from min(T) [0 0 0 0 0 0 0] 8.31906e-21 to max(T) [0 0 0 0 0 0 0] 0.953884

ExecutionTime = 9.25 s  ClockTime = 113 s

Time = 0.0125
Courant Number mean: 0.187252 max: 0.367986
DILUPBiCG:  Solving for T, Initial residual = 0.00336966, Final residual = 1.07385e-11, No Iterations 3
DILUPBiCG:  Solving for T, Initial residual = 6.07083e-06, Final residual = 3.34002e-11, No Iterations 2
DILUPBiCG:  Solving for T, Initial residual = 4.39279e-09, Final residual = 4.39279e-09, No Iterations 0
DILUPBiCG:  Solving for T, Initial residual = 4.39279e-09, Final residual = 4.39279e-09, No Iterations 0
 T goes from min(T) [0 0 0 0 0 0 0] 8.37072e-21 to max(T) [0 0 0 0 0 0 0] 0.953688

ExecutionTime = 9.78 s  ClockTime = 124 s

Time = 0.015
Courant Number mean: 0.187258 max: 0.367988
DILUPBiCG:  Solving for T, Initial residual = 0.00337002, Final residual = 1.06077e-11, No Iterations 3
DILUPBiCG:  Solving for T, Initial residual = 6.07361e-06, Final residual = 3.30025e-11, No Iterations 2
DILUPBiCG:  Solving for T, Initial residual = 4.39997e-09, Final residual = 4.39997e-09, No Iterations 0
DILUPBiCG:  Solving for T, Initial residual = 4.39997e-09, Final residual = 4.39997e-09, No Iterations 0
 T goes from min(T) [0 0 0 0 0 0 0] 8.54581e-21 to max(T) [0 0 0 0 0 0 0] 0.953274

ExecutionTime = 10.29 s  ClockTime = 133 s

Time = 0.0175
Courant Number mean: 0.187261 max: 0.367982
DILUPBiCG:  Solving for T, Initial residual = 0.00337042, Final residual = 1.04758e-11, No Iterations 3
DILUPBiCG:  Solving for T, Initial residual = 6.0766e-06, Final residual = 3.26029e-11, No Iterations 2
DILUPBiCG:  Solving for T, Initial residual = 4.4093e-09, Final residual = 4.4093e-09, No Iterations 0
DILUPBiCG:  Solving for T, Initial residual = 4.4093e-09, Final residual = 4.4093e-09, No Iterations 0
 T goes from min(T) [0 0 0 0 0 0 0] 8.841e-21 to max(T) [0 0 0 0 0 0 0] 0.95353

ExecutionTime = 10.82 s  ClockTime = 144 s

Time = 0.02
Courant Number mean: 0.187261 max: 0.367969
DILUPBiCG:  Solving for T, Initial residual = 0.00337072, Final residual = 1.03434e-11, No Iterations 3
DILUPBiCG:  Solving for T, Initial residual = 6.07997e-06, Final residual = 3.22017e-11, No Iterations 2
DILUPBiCG:  Solving for T, Initial residual = 4.42056e-09, Final residual = 4.42056e-09, No Iterations 0
DILUPBiCG:  Solving for T, Initial residual = 4.42056e-09, Final residual = 4.42056e-09, No Iterations 0
 T goes from min(T) [0 0 0 0 0 0 0] 9.25336e-21 to max(T) [0 0 0 0 0 0 0] 0.953638

ExecutionTime = 11.31 s  ClockTime = 155 s

Time = 0.0225
Courant Number mean: 0.187259 max: 0.367968
DILUPBiCG:  Solving for T, Initial residual = 0.00337089, Final residual = 1.0211e-11, No Iterations 3
DILUPBiCG:  Solving for T, Initial residual = 6.08351e-06, Final residual = 3.17985e-11, No Iterations 2
DILUPBiCG:  Solving for T, Initial residual = 4.4314e-09, Final residual = 4.4314e-09, No Iterations 0
DILUPBiCG:  Solving for T, Initial residual = 4.4314e-09, Final residual = 4.4314e-09, No Iterations 0
 T goes from min(T) [0 0 0 0 0 0 0] 9.28957e-21 to max(T) [0 0 0 0 0 0 0] 0.953815

ExecutionTime = 11.86 s  ClockTime = 170 s

Time = 0.025
Courant Number mean: 0.187254 max: 0.367968
DILUPBiCG:  Solving for T, Initial residual = 0.00337113, Final residual = 1.00749e-11, No Iterations 3
DILUPBiCG:  Solving for T, Initial residual = 6.08707e-06, Final residual = 3.13926e-11, No Iterations 2
DILUPBiCG:  Solving for T, Initial residual = 4.44317e-09, Final residual = 4.44317e-09, No Iterations 0
DILUPBiCG:  Solving for T, Initial residual = 4.44317e-09, Final residual = 4.44317e-09, No Iterations 0
 T goes from min(T) [0 0 0 0 0 0 0] 8.90576e-21 to max(T) [0 0 0 0 0 0 0] 0.95391

ExecutionTime = 12.36 s  ClockTime = 179 s

Time = 0.0275
Courant Number mean: 0.187246 max: 0.367961
DILUPBiCG:  Solving for T, Initial residual = 0.00337151, Final residual = 9.93613e-12, No Iterations 3
DILUPBiCG:  Solving for T, Initial residual = 6.09103e-06, Final residual = 3.09864e-11, No Iterations 2
DILUPBiCG:  Solving for T, Initial residual = 4.45734e-09, Final residual = 4.45734e-09, No Iterations 0
DILUPBiCG:  Solving for T, Initial residual = 4.45734e-09, Final residual = 4.45734e-09, No Iterations 0
 T goes from min(T) [0 0 0 0 0 0 0] 8.64624e-21 to max(T) [0 0 0 0 0 0 0] 0.953727

ExecutionTime = 12.87 s  ClockTime = 189 s

Time = 0.03
Courant Number mean: 0.187236 max: 0.367947
DILUPBiCG:  Solving for T, Initial residual = 0.00337202, Final residual = 9.79722e-12, No Iterations 3
DILUPBiCG:  Solving for T, Initial residual = 6.09552e-06, Final residual = 3.05793e-11, No Iterations 2
DILUPBiCG:  Solving for T, Initial residual = 4.47322e-09, Final residual = 4.47322e-09, No Iterations 0
DILUPBiCG:  Solving for T, Initial residual = 4.47322e-09, Final residual = 4.47322e-09, No Iterations 0
 T goes from min(T) [0 0 0 0 0 0 0] 8.5091e-21 to max(T) [0 0 0 0 0 0 0] 0.953261

ExecutionTime = 13.39 s  ClockTime = 199 s

Time = 0.0325
Courant Number mean: 0.187233 max: 0.367939
DILUPBiCG:  Solving for T, Initial residual = 0.00337255, Final residual = 9.65816e-12, No Iterations 3
DILUPBiCG:  Solving for T, Initial residual = 6.10059e-06, Final residual = 3.0175e-11, No Iterations 2
DILUPBiCG:  Solving for T, Initial residual = 4.48823e-09, Final residual = 4.48823e-09, No Iterations 0
DILUPBiCG:  Solving for T, Initial residual = 4.48823e-09, Final residual = 4.48823e-09, No Iterations 0
 T goes from min(T) [0 0 0 0 0 0 0] 8.49242e-21 to max(T) [0 0 0 0 0 0 0] 0.953612

ExecutionTime = 13.9 s  ClockTime = 208 s

Time = 0.035
Courant Number mean: 0.187238 max: 0.367938
DILUPBiCG:  Solving for T, Initial residual = 0.0033731, Final residual = 9.51744e-12, No Iterations 3
DILUPBiCG:  Solving for T, Initial residual = 6.1062e-06, Final residual = 2.97725e-11, No Iterations 2
DILUPBiCG:  Solving for T, Initial residual = 4.50187e-09, Final residual = 4.50187e-09, No Iterations 0
DILUPBiCG:  Solving for T, Initial residual = 4.50187e-09, Final residual = 4.50187e-09, No Iterations 0
 T goes from min(T) [0 0 0 0 0 0 0] 8.59432e-21 to max(T) [0 0 0 0 0 0 0] 0.953909

ExecutionTime = 14.44 s  ClockTime = 219 s

Time = 0.0375
Courant Number mean: 0.18724 max: 0.367929
DILUPBiCG:  Solving for T, Initial residual = 0.00337352, Final residual = 9.37463e-12, No Iterations 3
DILUPBiCG:  Solving for T, Initial residual = 6.11204e-06, Final residual = 2.9367e-11, No Iterations 2
DILUPBiCG:  Solving for T, Initial residual = 4.51676e-09, Final residual = 4.51676e-09, No Iterations 0
DILUPBiCG:  Solving for T, Initial residual = 4.51676e-09, Final residual = 4.51676e-09, No Iterations 0
 T goes from min(T) [0 0 0 0 0 0 0] 8.81303e-21 to max(T) [0 0 0 0 0 0 0] 0.953957

ExecutionTime = 14.95 s  ClockTime = 228 s

Time = 0.04
Courant Number mean: 0.187239 max: 0.367914
DILUPBiCG:  Solving for T, Initial residual = 0.00337388, Final residual = 9.23248e-12, No Iterations 3
DILUPBiCG:  Solving for T, Initial residual = 6.11799e-06, Final residual = 2.89589e-11, No Iterations 2
DILUPBiCG:  Solving for T, Initial residual = 4.53238e-09, Final residual = 4.53238e-09, No Iterations 0
DILUPBiCG:  Solving for T, Initial residual = 4.53238e-09, Final residual = 4.53238e-09, No Iterations 0
 T goes from min(T) [0 0 0 0 0 0 0] 9.14698e-21 to max(T) [0 0 0 0 0 0 0] 0.953761

ExecutionTime = 15.44 s  ClockTime = 238 s

Time = 0.0425
Courant Number mean: 0.187236 max: 0.3679
DILUPBiCG:  Solving for T, Initial residual = 0.00337439, Final residual = 9.08942e-12, No Iterations 3
DILUPBiCG:  Solving for T, Initial residual = 6.12427e-06, Final residual = 2.85476e-11, No Iterations 2
DILUPBiCG:  Solving for T, Initial residual = 4.54905e-09, Final residual = 4.54905e-09, No Iterations 0
DILUPBiCG:  Solving for T, Initial residual = 4.54905e-09, Final residual = 4.54905e-09, No Iterations 0
 T goes from min(T) [0 0 0 0 0 0 0] 9.44199e-21 to max(T) [0 0 0 0 0 0 0] 0.953461

ExecutionTime = 15.94 s  ClockTime = 247 s

Time = 0.045
Courant Number mean: 0.18723 max: 0.367898
DILUPBiCG:  Solving for T, Initial residual = 0.003375, Final residual = 8.94835e-12, No Iterations 3
DILUPBiCG:  Solving for T, Initial residual = 6.13048e-06, Final residual = 2.81333e-11, No Iterations 2
DILUPBiCG:  Solving for T, Initial residual = 4.56711e-09, Final residual = 4.56711e-09, No Iterations 0
DILUPBiCG:  Solving for T, Initial residual = 4.56711e-09, Final residual = 4.56711e-09, No Iterations 0
 T goes from min(T) [0 0 0 0 0 0 0] 9.0348e-21 to max(T) [0 0 0 0 0 0 0] 0.95327

ExecutionTime = 16.44 s  ClockTime = 255 s

Time = 0.0475
Courant Number mean: 0.187221 max: 0.367888
DILUPBiCG:  Solving for T, Initial residual = 0.00337561, Final residual = 8.80635e-12, No Iterations 3
DILUPBiCG:  Solving for T, Initial residual = 6.13694e-06, Final residual = 2.77153e-11, No Iterations 2
DILUPBiCG:  Solving for T, Initial residual = 4.58753e-09, Final residual = 4.58753e-09, No Iterations 0
DILUPBiCG:  Solving for T, Initial residual = 4.58753e-09, Final residual = 4.58753e-09, No Iterations 0
 T goes from min(T) [0 0 0 0 0 0 0] 8.74488e-21 to max(T) [0 0 0 0 0 0 0] 0.953453

ExecutionTime = 16.99 s  ClockTime = 265 s

Time = 0.05
Courant Number mean: 0.18721 max: 0.367872
DILUPBiCG:  Solving for T, Initial residual = 0.0033761, Final residual = 8.66722e-12, No Iterations 3
DILUPBiCG:  Solving for T, Initial residual = 6.14397e-06, Final residual = 2.7295e-11, No Iterations 2
DILUPBiCG:  Solving for T, Initial residual = 4.60884e-09, Final residual = 4.60884e-09, No Iterations 0
DILUPBiCG:  Solving for T, Initial residual = 4.60884e-09, Final residual = 4.60884e-09, No Iterations 0
 T goes from min(T) [0 0 0 0 0 0 0] 8.57095e-21 to max(T) [0 0 0 0 0 0 0] 0.953868

ExecutionTime = 17.44 s  ClockTime = 272 s

Time = 0.0525
Courant Number mean: 0.1872 max: 0.367852
DILUPBiCG:  Solving for T, Initial residual = 0.00337658, Final residual = 8.53147e-12, No Iterations 3
DILUPBiCG:  Solving for T, Initial residual = 6.15137e-06, Final residual = 2.68729e-11, No Iterations 2
DILUPBiCG:  Solving for T, Initial residual = 4.62966e-09, Final residual = 4.62966e-09, No Iterations 0
DILUPBiCG:  Solving for T, Initial residual = 4.62966e-09, Final residual = 4.62966e-09, No Iterations 0
 T goes from min(T) [0 0 0 0 0 0 0] 8.51179e-21 to max(T) [0 0 0 0 0 0 0] 0.954043

ExecutionTime = 17.92 s  ClockTime = 280 s

Time = 0.055
Courant Number mean: 0.187203 max: 0.367848
DILUPBiCG:  Solving for T, Initial residual = 0.0033771, Final residual = 8.40237e-12, No Iterations 3
DILUPBiCG:  Solving for T, Initial residual = 6.15898e-06, Final residual = 2.64547e-11, No Iterations 2
DILUPBiCG:  Solving for T, Initial residual = 4.64863e-09, Final residual = 4.64863e-09, No Iterations 0
DILUPBiCG:  Solving for T, Initial residual = 4.64863e-09, Final residual = 4.64863e-09, No Iterations 0
 T goes from min(T) [0 0 0 0 0 0 0] 8.56625e-21 to max(T) [0 0 0 0 0 0 0] 0.954022

ExecutionTime = 18.41 s  ClockTime = 289 s

Time = 0.0575
Courant Number mean: 0.187205 max: 0.367837
DILUPBiCG:  Solving for T, Initial residual = 0.00337761, Final residual = 8.27731e-12, No Iterations 3
DILUPBiCG:  Solving for T, Initial residual = 6.16666e-06, Final residual = 2.60309e-11, No Iterations 2
DILUPBiCG:  Solving for T, Initial residual = 4.66893e-09, Final residual = 4.66893e-09, No Iterations 0
DILUPBiCG:  Solving for T, Initial residual = 4.66893e-09, Final residual = 4.66893e-09, No Iterations 0
 T goes from min(T) [0 0 0 0 0 0 0] 8.73333e-21 to max(T) [0 0 0 0 0 0 0] 0.953765

ExecutionTime = 18.95 s  ClockTime = 298 s

Time = 0.06
Courant Number mean: 0.187203 max: 0.367819
DILUPBiCG:  Solving for T, Initial residual = 0.00337822, Final residual = 8.1605e-12, No Iterations 3
DILUPBiCG:  Solving for T, Initial residual = 6.17477e-06, Final residual = 2.56044e-11, No Iterations 2
DILUPBiCG:  Solving for T, Initial residual = 4.69e-09, Final residual = 4.69e-09, No Iterations 0
DILUPBiCG:  Solving for T, Initial residual = 4.69e-09, Final residual = 4.69e-09, No Iterations 0
 T goes from min(T) [0 0 0 0 0 0 0] 9.01219e-21 to max(T) [0 0 0 0 0 0 0] 0.953278

ExecutionTime = 19.51 s  ClockTime = 307 s

Time = 0.0625
Courant Number mean: 0.187198 max: 0.367793
DILUPBiCG:  Solving for T, Initial residual = 0.00337881, Final residual = 8.05184e-12, No Iterations 3
DILUPBiCG:  Solving for T, Initial residual = 6.18272e-06, Final residual = 2.51736e-11, No Iterations 2
DILUPBiCG:  Solving for T, Initial residual = 4.71169e-09, Final residual = 4.71169e-09, No Iterations 0
DILUPBiCG:  Solving for T, Initial residual = 4.71169e-09, Final residual = 4.71169e-09, No Iterations 0
 T goes from min(T) [0 0 0 0 0 0 0] 9.40224e-21 to max(T) [0 0 0 0 0 0 0] 0.952841

ExecutionTime = 20 s  ClockTime = 316 s

Time = 0.065
Courant Number mean: 0.187192 max: 0.367788
DILUPBiCG:  Solving for T, Initial residual = 0.00337946, Final residual = 7.95289e-12, No Iterations 3
DILUPBiCG:  Solving for T, Initial residual = 6.19072e-06, Final residual = 2.47376e-11, No Iterations 2
DILUPBiCG:  Solving for T, Initial residual = 4.73293e-09, Final residual = 4.73293e-09, No Iterations 0
DILUPBiCG:  Solving for T, Initial residual = 4.73293e-09, Final residual = 4.73293e-09, No Iterations 0
 T goes from min(T) [0 0 0 0 0 0 0] 9.13287e-21 to max(T) [0 0 0 0 0 0 0] 0.95345

ExecutionTime = 20.48 s  ClockTime = 324 s

Time = 0.0675
Courant Number mean: 0.187182 max: 0.367776
DILUPBiCG:  Solving for T, Initial residual = 0.00337976, Final residual = 7.86796e-12, No Iterations 3
DILUPBiCG:  Solving for T, Initial residual = 6.19947e-06, Final residual = 2.42968e-11, No Iterations 2
DILUPBiCG:  Solving for T, Initial residual = 4.75666e-09, Final residual = 4.75666e-09, No Iterations 0
DILUPBiCG:  Solving for T, Initial residual = 4.75666e-09, Final residual = 4.75666e-09, No Iterations 0
 T goes from min(T) [0 0 0 0 0 0 0] 8.81304e-21 to max(T) [0 0 0 0 0 0 0] 0.953819

ExecutionTime = 20.97 s  ClockTime = 332 s

Time = 0.07
Courant Number mean: 0.18717 max: 0.367756
DILUPBiCG:  Solving for T, Initial residual = 0.00338037, Final residual = 7.79941e-12, No Iterations 3
DILUPBiCG:  Solving for T, Initial residual = 6.20851e-06, Final residual = 2.38529e-11, No Iterations 2
DILUPBiCG:  Solving for T, Initial residual = 4.78189e-09, Final residual = 4.78189e-09, No Iterations 0
DILUPBiCG:  Solving for T, Initial residual = 4.78189e-09, Final residual = 4.78189e-09, No Iterations 0
 T goes from min(T) [0 0 0 0 0 0 0] 8.6054e-21 to max(T) [0 0 0 0 0 0 0] 0.953969

ExecutionTime = 21.46 s  ClockTime = 341 s

Time = 0.0725
Courant Number mean: 0.187155 max: 0.36773
DILUPBiCG:  Solving for T, Initial residual = 0.00338093, Final residual = 7.7556e-12, No Iterations 3
DILUPBiCG:  Solving for T, Initial residual = 6.21763e-06, Final residual = 2.34032e-11, No Iterations 2
DILUPBiCG:  Solving for T, Initial residual = 4.80916e-09, Final residual = 4.80916e-09, No Iterations 0
DILUPBiCG:  Solving for T, Initial residual = 4.80916e-09, Final residual = 4.80916e-09, No Iterations 0
 T goes from min(T) [0 0 0 0 0 0 0] 8.50889e-21 to max(T) [0 0 0 0 0 0 0] 0.953854

ExecutionTime = 21.94 s  ClockTime = 349 s

Time = 0.075
Courant Number mean: 0.187154 max: 0.367719
DILUPBiCG:  Solving for T, Initial residual = 0.00338146, Final residual = 7.74337e-12, No Iterations 3
DILUPBiCG:  Solving for T, Initial residual = 6.2268e-06, Final residual = 2.29558e-11, No Iterations 2
DILUPBiCG:  Solving for T, Initial residual = 4.83501e-09, Final residual = 4.83501e-09, No Iterations 0
DILUPBiCG:  Solving for T, Initial residual = 4.83501e-09, Final residual = 4.83501e-09, No Iterations 0
 T goes from min(T) [0 0 0 0 0 0 0] 8.5226e-21 to max(T) [0 0 0 0 0 0 0] 0.95353

ExecutionTime = 22.45 s  ClockTime = 357 s

Time = 0.0775
Courant Number mean: 0.187155 max: 0.367705
DILUPBiCG:  Solving for T, Initial residual = 0.00338194, Final residual = 7.76987e-12, No Iterations 3
DILUPBiCG:  Solving for T, Initial residual = 6.23615e-06, Final residual = 2.25045e-11, No Iterations 2
DILUPBiCG:  Solving for T, Initial residual = 4.8592e-09, Final residual = 4.8592e-09, No Iterations 0
DILUPBiCG:  Solving for T, Initial residual = 4.8592e-09, Final residual = 4.8592e-09, No Iterations 0
 T goes from min(T) [0 0 0 0 0 0 0] 8.64579e-21 to max(T) [0 0 0 0 0 0 0] 0.953405

ExecutionTime = 22.94 s  ClockTime = 366 s

Time = 0.08
Courant Number mean: 0.187152 max: 0.367684
DILUPBiCG:  Solving for T, Initial residual = 0.00338254, Final residual = 7.84371e-12, No Iterations 3
DILUPBiCG:  Solving for T, Initial residual = 6.24544e-06, Final residual = 2.20482e-11, No Iterations 2
DILUPBiCG:  Solving for T, Initial residual = 4.88355e-09, Final residual = 4.88355e-09, No Iterations 0
DILUPBiCG:  Solving for T, Initial residual = 4.88355e-09, Final residual = 4.88355e-09, No Iterations 0
 T goes from min(T) [0 0 0 0 0 0 0] 8.87794e-21 to max(T) [0 0 0 0 0 0 0] 0.953625

ExecutionTime = 23.43 s  ClockTime = 373 s

Time = 0.0825
Courant Number mean: 0.187147 max: 0.367656
DILUPBiCG:  Solving for T, Initial residual = 0.00338306, Final residual = 7.97739e-12, No Iterations 3
DILUPBiCG:  Solving for T, Initial residual = 6.25502e-06, Final residual = 2.15846e-11, No Iterations 2
DILUPBiCG:  Solving for T, Initial residual = 4.90815e-09, Final residual = 4.90815e-09, No Iterations 0
DILUPBiCG:  Solving for T, Initial residual = 4.90815e-09, Final residual = 4.90815e-09, No Iterations 0
 T goes from min(T) [0 0 0 0 0 0 0] 9.21877e-21 to max(T) [0 0 0 0 0 0 0] 0.953538

ExecutionTime = 23.91 s  ClockTime = 381 s

Time = 0.085
Courant Number mean: 0.187139 max: 0.367639
DILUPBiCG:  Solving for T, Initial residual = 0.00338335, Final residual = 8.19014e-12, No Iterations 3
DILUPBiCG:  Solving for T, Initial residual = 6.26496e-06, Final residual = 2.11143e-11, No Iterations 2
DILUPBiCG:  Solving for T, Initial residual = 4.93382e-09, Final residual = 4.93382e-09, No Iterations 0
DILUPBiCG:  Solving for T, Initial residual = 4.93382e-09, Final residual = 4.93382e-09, No Iterations 0
 T goes from min(T) [0 0 0 0 0 0 0] 9.2232e-21 to max(T) [0 0 0 0 0 0 0] 0.953621

ExecutionTime = 24.42 s  ClockTime = 390 s

Time = 0.0875
Courant Number mean: 0.187128 max: 0.367624
DILUPBiCG:  Solving for T, Initial residual = 0.00338398, Final residual = 8.50176e-12, No Iterations 3
DILUPBiCG:  Solving for T, Initial residual = 6.27514e-06, Final residual = 2.06364e-11, No Iterations 2
DILUPBiCG:  Solving for T, Initial residual = 4.96082e-09, Final residual = 4.96082e-09, No Iterations 0
DILUPBiCG:  Solving for T, Initial residual = 4.96082e-09, Final residual = 4.96082e-09, No Iterations 0
 T goes from min(T) [0 0 0 0 0 0 0] 8.87383e-21 to max(T) [0 0 0 0 0 0 0] 0.953663

ExecutionTime = 24.91 s  ClockTime = 398 s

Time = 0.09
Courant Number mean: 0.187115 max: 0.367601
DILUPBiCG:  Solving for T, Initial residual = 0.00338457, Final residual = 8.94141e-12, No Iterations 3
DILUPBiCG:  Solving for T, Initial residual = 6.28551e-06, Final residual = 2.01518e-11, No Iterations 2
DILUPBiCG:  Solving for T, Initial residual = 4.98955e-09, Final residual = 4.98955e-09, No Iterations 0
DILUPBiCG:  Solving for T, Initial residual = 4.98955e-09, Final residual = 4.98955e-09, No Iterations 0
 T goes from min(T) [0 0 0 0 0 0 0] 8.63407e-21 to max(T) [0 0 0 0 0 0 0] 0.953484

ExecutionTime = 25.42 s  ClockTime = 407 s

Time = 0.0925
Courant Number mean: 0.1871 max: 0.367572
DILUPBiCG:  Solving for T, Initial residual = 0.00338516, Final residual = 9.69886e-09, No Iterations 2
DILUPBiCG:  Solving for T, Initial residual = 6.29083e-06, Final residual = 1.94344e-11, No Iterations 2
DILUPBiCG:  Solving for T, Initial residual = 5.01512e-09, Final residual = 5.01512e-09, No Iterations 0
DILUPBiCG:  Solving for T, Initial residual = 5.01512e-09, Final residual = 5.01512e-09, No Iterations 0
 T goes from min(T) [0 0 0 0 0 0 0] 8.50284e-21 to max(T) [0 0 0 0 0 0 0] 0.953309

ExecutionTime = 25.88 s  ClockTime = 415 s

Time = 0.095
Courant Number mean: 0.187091 max: 0.367549
DILUPBiCG:  Solving for T, Initial residual = 0.00338548, Final residual = 8.59571e-09, No Iterations 2
DILUPBiCG:  Solving for T, Initial residual = 6.30198e-06, Final residual = 1.89965e-11, No Iterations 2
DILUPBiCG:  Solving for T, Initial residual = 5.04535e-09, Final residual = 5.04535e-09, No Iterations 0
DILUPBiCG:  Solving for T, Initial residual = 5.04535e-09, Final residual = 5.04535e-09, No Iterations 0
 T goes from min(T) [0 0 0 0 0 0 0] 8.47929e-21 to max(T) [0 0 0 0 0 0 0] 0.953676

ExecutionTime = 26.37 s  ClockTime = 423 s

Time = 0.0975
Courant Number mean: 0.18709 max: 0.367533
DILUPBiCG:  Solving for T, Initial residual = 0.00338599, Final residual = 7.83077e-09, No Iterations 2
DILUPBiCG:  Solving for T, Initial residual = 6.31289e-06, Final residual = 1.85593e-11, No Iterations 2
DILUPBiCG:  Solving for T, Initial residual = 5.0727e-09, Final residual = 5.0727e-09, No Iterations 0
DILUPBiCG:  Solving for T, Initial residual = 5.0727e-09, Final residual = 5.0727e-09, No Iterations 0
 T goes from min(T) [0 0 0 0 0 0 0] 8.56279e-21 to max(T) [0 0 0 0 0 0 0] 0.953973

ExecutionTime = 26.88 s  ClockTime = 432 s

Time = 0.1
Courant Number mean: 0.187087 max: 0.367509
DILUPBiCG:  Solving for T, Initial residual = 0.00338649, Final residual = 7.37093e-09, No Iterations 2
DILUPBiCG:  Solving for T, Initial residual = 6.324e-06, Final residual = 1.81167e-11, No Iterations 2
DILUPBiCG:  Solving for T, Initial residual = 5.10209e-09, Final residual = 5.10209e-09, No Iterations 0
DILUPBiCG:  Solving for T, Initial residual = 5.10209e-09, Final residual = 5.10209e-09, No Iterations 0
 T goes from min(T) [0 0 0 0 0 0 0] 8.75295e-21 to max(T) [0 0 0 0 0 0 0] 0.953957

ExecutionTime = 27.42 s  ClockTime = 441 s

Time = 0.1025
Courant Number mean: 0.18708 max: 0.367478
DILUPBiCG:  Solving for T, Initial residual = 0.00338679, Final residual = 7.11678e-09, No Iterations 2
DILUPBiCG:  Solving for T, Initial residual = 6.33599e-06, Final residual = 1.76665e-11, No Iterations 2
DILUPBiCG:  Solving for T, Initial residual = 5.13135e-09, Final residual = 5.13135e-09, No Iterations 0
DILUPBiCG:  Solving for T, Initial residual = 5.13135e-09, Final residual = 5.13135e-09, No Iterations 0
 T goes from min(T) [0 0 0 0 0 0 0] 9.04963e-21 to max(T) [0 0 0 0 0 0 0] 0.953622

ExecutionTime = 27.92 s  ClockTime = 449 s

Time = 0.105
Courant Number mean: 0.187072 max: 0.367449
DILUPBiCG:  Solving for T, Initial residual = 0.00338722, Final residual = 7.03123e-09, No Iterations 2
DILUPBiCG:  Solving for T, Initial residual = 6.34767e-06, Final residual = 1.72069e-11, No Iterations 2
DILUPBiCG:  Solving for T, Initial residual = 5.16162e-09, Final residual = 5.16162e-09, No Iterations 0
DILUPBiCG:  Solving for T, Initial residual = 5.16162e-09, Final residual = 5.16162e-09, No Iterations 0
 T goes from min(T) [0 0 0 0 0 0 0] 9.3149e-21 to max(T) [0 0 0 0 0 0 0] 0.953214

ExecutionTime = 28.41 s  ClockTime = 458 s

Time = 0.1075
Courant Number mean: 0.18706 max: 0.367432
DILUPBiCG:  Solving for T, Initial residual = 0.0033878, Final residual = 7.09131e-09, No Iterations 2
DILUPBiCG:  Solving for T, Initial residual = 6.35931e-06, Final residual = 1.67374e-11, No Iterations 2
DILUPBiCG:  Solving for T, Initial residual = 5.19236e-09, Final residual = 5.19236e-09, No Iterations 0
DILUPBiCG:  Solving for T, Initial residual = 5.19236e-09, Final residual = 5.19236e-09, No Iterations 0
 T goes from min(T) [0 0 0 0 0 0 0] 8.93643e-21 to max(T) [0 0 0 0 0 0 0] 0.953296

ExecutionTime = 28.92 s  ClockTime = 466 s

Time = 0.11
Courant Number mean: 0.187046 max: 0.367407
DILUPBiCG:  Solving for T, Initial residual = 0.00338823, Final residual = 7.27977e-09, No Iterations 2
DILUPBiCG:  Solving for T, Initial residual = 6.37107e-06, Final residual = 1.62617e-11, No Iterations 2
DILUPBiCG:  Solving for T, Initial residual = 5.22375e-09, Final residual = 5.22375e-09, No Iterations 0
DILUPBiCG:  Solving for T, Initial residual = 5.22375e-09, Final residual = 5.22375e-09, No Iterations 0
 T goes from min(T) [0 0 0 0 0 0 0] 8.66568e-21 to max(T) [0 0 0 0 0 0 0] 0.953697

ExecutionTime = 29.42 s  ClockTime = 475 s

Time = 0.1125
Courant Number mean: 0.187029 max: 0.367375
DILUPBiCG:  Solving for T, Initial residual = 0.00338849, Final residual = 7.58483e-09, No Iterations 2
DILUPBiCG:  Solving for T, Initial residual = 6.38242e-06, Final residual = 1.5776e-11, No Iterations 2
DILUPBiCG:  Solving for T, Initial residual = 5.25748e-09, Final residual = 5.25748e-09, No Iterations 0
DILUPBiCG:  Solving for T, Initial residual = 5.25748e-09, Final residual = 5.25748e-09, No Iterations 0
 T goes from min(T) [0 0 0 0 0 0 0] 8.50151e-21 to max(T) [0 0 0 0 0 0 0] 0.953885

ExecutionTime = 29.92 s  ClockTime = 483 s

Time = 0.115
Courant Number mean: 0.187013 max: 0.36734
DILUPBiCG:  Solving for T, Initial residual = 0.00338893, Final residual = 7.99883e-09, No Iterations 2
DILUPBiCG:  Solving for T, Initial residual = 6.3943e-06, Final residual = 1.52831e-11, No Iterations 2
DILUPBiCG:  Solving for T, Initial residual = 5.29406e-09, Final residual = 5.29406e-09, No Iterations 0
DILUPBiCG:  Solving for T, Initial residual = 5.29406e-09, Final residual = 5.29406e-09, No Iterations 0
 T goes from min(T) [0 0 0 0 0 0 0] 8.44304e-21 to max(T) [0 0 0 0 0 0 0] 0.953863

ExecutionTime = 30.43 s  ClockTime = 492 s

Time = 0.1175
Courant Number mean: 0.187012 max: 0.367321
DILUPBiCG:  Solving for T, Initial residual = 0.00338953, Final residual = 8.51657e-09, No Iterations 2
DILUPBiCG:  Solving for T, Initial residual = 6.40667e-06, Final residual = 1.47954e-11, No Iterations 2
DILUPBiCG:  Solving for T, Initial residual = 5.32672e-09, Final residual = 5.32672e-09, No Iterations 0
DILUPBiCG:  Solving for T, Initial residual = 5.32672e-09, Final residual = 5.32672e-09, No Iterations 0
 T goes from min(T) [0 0 0 0 0 0 0] 8.48964e-21 to max(T) [0 0 0 0 0 0 0] 0.953943

ExecutionTime = 30.92 s  ClockTime = 500 s

Time = 0.12
Courant Number mean: 0.187007 max: 0.367294
DILUPBiCG:  Solving for T, Initial residual = 0.00338985, Final residual = 9.13226e-09, No Iterations 2
DILUPBiCG:  Solving for T, Initial residual = 6.41892e-06, Final residual = 1.42992e-11, No Iterations 2
DILUPBiCG:  Solving for T, Initial residual = 5.35873e-09, Final residual = 5.35873e-09, No Iterations 0
DILUPBiCG:  Solving for T, Initial residual = 5.35873e-09, Final residual = 5.35873e-09, No Iterations 0
 T goes from min(T) [0 0 0 0 0 0 0] 8.64098e-21 to max(T) [0 0 0 0 0 0 0] 0.953712

ExecutionTime = 31.42 s  ClockTime = 509 s

Time = 0.1225
Courant Number mean: 0.187 max: 0.367261
DILUPBiCG:  Solving for T, Initial residual = 0.00339015, Final residual = 9.84377e-09, No Iterations 2
DILUPBiCG:  Solving for T, Initial residual = 6.43141e-06, Final residual = 1.37948e-11, No Iterations 2
DILUPBiCG:  Solving for T, Initial residual = 5.39002e-09, Final residual = 5.39002e-09, No Iterations 0
DILUPBiCG:  Solving for T, Initial residual = 5.39002e-09, Final residual = 5.39002e-09, No Iterations 0
 T goes from min(T) [0 0 0 0 0 0 0] 8.89698e-21 to max(T) [0 0 0 0 0 0 0] 0.953153

ExecutionTime = 31.91 s  ClockTime = 517 s

Time = 0.125
Courant Number mean: 0.18699 max: 0.36722
DILUPBiCG:  Solving for T, Initial residual = 0.00339049, Final residual = 1.29467e-11, No Iterations 3
DILUPBiCG:  Solving for T, Initial residual = 6.43779e-06, Final residual = 1.24832e-11, No Iterations 2
DILUPBiCG:  Solving for T, Initial residual = 5.41853e-09, Final residual = 5.41853e-09, No Iterations 0
DILUPBiCG:  Solving for T, Initial residual = 5.41853e-09, Final residual = 5.41853e-09, No Iterations 0
 T goes from min(T) [0 0 0 0 0 0 0] 9.2579e-21 to max(T) [0 0 0 0 0 0 0] 0.953637

ExecutionTime = 32.43 s  ClockTime = 526 s

Time = 0.1275
Courant Number mean: 0.186977 max: 0.3672
DILUPBiCG:  Solving for T, Initial residual = 0.00339077, Final residual = 1.17852e-11, No Iterations 3
DILUPBiCG:  Solving for T, Initial residual = 6.44917e-06, Final residual = 1.18365e-11, No Iterations 2
DILUPBiCG:  Solving for T, Initial residual = 5.45303e-09, Final residual = 5.45303e-09, No Iterations 0
DILUPBiCG:  Solving for T, Initial residual = 5.45303e-09, Final residual = 5.45303e-09, No Iterations 0
 T goes from min(T) [0 0 0 0 0 0 0] 9.00501e-21 to max(T) [0 0 0 0 0 0 0] 0.953941

ExecutionTime = 32.94 s  ClockTime = 535 s

Time = 0.13
Courant Number mean: 0.186962 max: 0.367172
DILUPBiCG:  Solving for T, Initial residual = 0.00339118, Final residual = 1.08981e-11, No Iterations 3
DILUPBiCG:  Solving for T, Initial residual = 6.46035e-06, Final residual = 1.11679e-11, No Iterations 2
DILUPBiCG:  Solving for T, Initial residual = 5.48755e-09, Final residual = 5.48755e-09, No Iterations 0
DILUPBiCG:  Solving for T, Initial residual = 5.48755e-09, Final residual = 5.48755e-09, No Iterations 0
 T goes from min(T) [0 0 0 0 0 0 0] 8.70421e-21 to max(T) [0 0 0 0 0 0 0] 0.954041

ExecutionTime = 33.46 s  ClockTime = 543 s

Time = 0.1325
Courant Number mean: 0.186945 max: 0.367137
DILUPBiCG:  Solving for T, Initial residual = 0.00339147, Final residual = 1.03363e-11, No Iterations 3
DILUPBiCG:  Solving for T, Initial residual = 6.47181e-06, Final residual = 1.09541e-11, No Iterations 2
DILUPBiCG:  Solving for T, Initial residual = 5.52382e-09, Final residual = 5.52382e-09, No Iterations 0
DILUPBiCG:  Solving for T, Initial residual = 5.52382e-09, Final residual = 5.52382e-09, No Iterations 0
 T goes from min(T) [0 0 0 0 0 0 0] 8.50847e-21 to max(T) [0 0 0 0 0 0 0] 0.953941

ExecutionTime = 33.96 s  ClockTime = 552 s

Time = 0.135
Courant Number mean: 0.186925 max: 0.367096
DILUPBiCG:  Solving for T, Initial residual = 0.00339195, Final residual = 1.00243e-11, No Iterations 3
DILUPBiCG:  Solving for T, Initial residual = 6.4835e-06, Final residual = 1.1131e-11, No Iterations 2
DILUPBiCG:  Solving for T, Initial residual = 5.56259e-09, Final residual = 5.56259e-09, No Iterations 0
DILUPBiCG:  Solving for T, Initial residual = 5.56259e-09, Final residual = 5.56259e-09, No Iterations 0
 T goes from min(T) [0 0 0 0 0 0 0] 8.41683e-21 to max(T) [0 0 0 0 0 0 0] 0.953646

ExecutionTime = 34.45 s  ClockTime = 560 s

Time = 0.1375
Courant Number mean: 0.186918 max: 0.367069
DILUPBiCG:  Solving for T, Initial residual = 0.00339227, Final residual = 9.83583e-12, No Iterations 3
DILUPBiCG:  Solving for T, Initial residual = 6.49539e-06, Final residual = 1.13155e-11, No Iterations 2
DILUPBiCG:  Solving for T, Initial residual = 5.59938e-09, Final residual = 5.59938e-09, No Iterations 0
DILUPBiCG:  Solving for T, Initial residual = 5.59938e-09, Final residual = 5.59938e-09, No Iterations 0
 T goes from min(T) [0 0 0 0 0 0 0] 8.42865e-21 to max(T) [0 0 0 0 0 0 0] 0.953392

ExecutionTime = 34.94 s  ClockTime = 569 s

Time = 0.14
Courant Number mean: 0.186913 max: 0.36704
DILUPBiCG:  Solving for T, Initial residual = 0.0033926, Final residual = 9.69777e-12, No Iterations 3
DILUPBiCG:  Solving for T, Initial residual = 6.50725e-06, Final residual = 1.15169e-11, No Iterations 2
DILUPBiCG:  Solving for T, Initial residual = 5.63477e-09, Final residual = 5.63477e-09, No Iterations 0
DILUPBiCG:  Solving for T, Initial residual = 5.63477e-09, Final residual = 5.63477e-09, No Iterations 0
 T goes from min(T) [0 0 0 0 0 0 0] 8.54356e-21 to max(T) [0 0 0 0 0 0 0] 0.953452

ExecutionTime = 35.44 s  ClockTime = 577 s

Time = 0.1425
Courant Number mean: 0.186905 max: 0.367004
DILUPBiCG:  Solving for T, Initial residual = 0.00339276, Final residual = 9.5808e-12, No Iterations 3
DILUPBiCG:  Solving for T, Initial residual = 6.51876e-06, Final residual = 1.17436e-11, No Iterations 2
DILUPBiCG:  Solving for T, Initial residual = 5.67064e-09, Final residual = 5.67064e-09, No Iterations 0
DILUPBiCG:  Solving for T, Initial residual = 5.67064e-09, Final residual = 5.67064e-09, No Iterations 0
 T goes from min(T) [0 0 0 0 0 0 0] 8.76152e-21 to max(T) [0 0 0 0 0 0 0] 0.953862

ExecutionTime = 35.96 s  ClockTime = 586 s

Time = 0.145
Courant Number mean: 0.186894 max: 0.36696
DILUPBiCG:  Solving for T, Initial residual = 0.00339308, Final residual = 9.46923e-12, No Iterations 3
DILUPBiCG:  Solving for T, Initial residual = 6.53013e-06, Final residual = 1.19952e-11, No Iterations 2
DILUPBiCG:  Solving for T, Initial residual = 5.70555e-09, Final residual = 5.70555e-09, No Iterations 0
DILUPBiCG:  Solving for T, Initial residual = 5.70555e-09, Final residual = 5.70555e-09, No Iterations 0
 T goes from min(T) [0 0 0 0 0 0 0] 9.08279e-21 to max(T) [0 0 0 0 0 0 0] 0.954072

ExecutionTime = 36.46 s  ClockTime = 595 s

Time = 0.1475
Courant Number mean: 0.18688 max: 0.366928
DILUPBiCG:  Solving for T, Initial residual = 0.00339334, Final residual = 9.35713e-12, No Iterations 3
DILUPBiCG:  Solving for T, Initial residual = 6.54188e-06, Final residual = 1.2277e-11, No Iterations 2
DILUPBiCG:  Solving for T, Initial residual = 5.74267e-09, Final residual = 5.74267e-09, No Iterations 0
DILUPBiCG:  Solving for T, Initial residual = 5.74267e-09, Final residual = 5.74267e-09, No Iterations 0
 T goes from min(T) [0 0 0 0 0 0 0] 9.08172e-21 to max(T) [0 0 0 0 0 0 0] 0.954087

ExecutionTime = 36.95 s  ClockTime = 603 s

Time = 0.15
Courant Number mean: 0.186864 max: 0.366898
DILUPBiCG:  Solving for T, Initial residual = 0.00339359, Final residual = 9.24021e-12, No Iterations 3
DILUPBiCG:  Solving for T, Initial residual = 6.55366e-06, Final residual = 1.25917e-11, No Iterations 2
DILUPBiCG:  Solving for T, Initial residual = 5.77983e-09, Final residual = 5.77983e-09, No Iterations 0
DILUPBiCG:  Solving for T, Initial residual = 5.77983e-09, Final residual = 5.77983e-09, No Iterations 0
 T goes from min(T) [0 0 0 0 0 0 0] 8.75168e-21 to max(T) [0 0 0 0 0 0 0] 0.953911

ExecutionTime = 37.45 s  ClockTime = 611 s

Time = 0.1525
Courant Number mean: 0.186846 max: 0.36686
DILUPBiCG:  Solving for T, Initial residual = 0.00339375, Final residual = 9.11924e-12, No Iterations 3
DILUPBiCG:  Solving for T, Initial residual = 6.56596e-06, Final residual = 1.29486e-11, No Iterations 2
DILUPBiCG:  Solving for T, Initial residual = 5.81814e-09, Final residual = 5.81814e-09, No Iterations 0
DILUPBiCG:  Solving for T, Initial residual = 5.81814e-09, Final residual = 5.81814e-09, No Iterations 0
 T goes from min(T) [0 0 0 0 0 0 0] 8.52548e-21 to max(T) [0 0 0 0 0 0 0] 0.95355

ExecutionTime = 37.94 s  ClockTime = 620 s

Time = 0.155
Courant Number mean: 0.186825 max: 0.366816
DILUPBiCG:  Solving for T, Initial residual = 0.00339415, Final residual = 9.0374e-12, No Iterations 3
DILUPBiCG:  Solving for T, Initial residual = 6.57792e-06, Final residual = 1.33465e-11, No Iterations 2
DILUPBiCG:  Solving for T, Initial residual = 5.85844e-09, Final residual = 5.85844e-09, No Iterations 0
DILUPBiCG:  Solving for T, Initial residual = 5.85844e-09, Final residual = 5.85844e-09, No Iterations 0
 T goes from min(T) [0 0 0 0 0 0 0] 8.4021e-21 to max(T) [0 0 0 0 0 0 0] 0.953253

ExecutionTime = 38.44 s  ClockTime = 628 s

Time = 0.1575
Courant Number mean: 0.186811 max: 0.366778
DILUPBiCG:  Solving for T, Initial residual = 0.00339442, Final residual = 8.95836e-12, No Iterations 3
DILUPBiCG:  Solving for T, Initial residual = 6.58949e-06, Final residual = 1.37778e-11, No Iterations 2
DILUPBiCG:  Solving for T, Initial residual = 5.89942e-09, Final residual = 5.89942e-09, No Iterations 0
DILUPBiCG:  Solving for T, Initial residual = 5.89942e-09, Final residual = 5.89942e-09, No Iterations 0
 T goes from min(T) [0 0 0 0 0 0 0] 8.38082e-21 to max(T) [0 0 0 0 0 0 0] 0.953685

ExecutionTime = 38.94 s  ClockTime = 637 s

Time = 0.16
Courant Number mean: 0.186804 max: 0.366746
DILUPBiCG:  Solving for T, Initial residual = 0.00339469, Final residual = 8.87602e-12, No Iterations 3
DILUPBiCG:  Solving for T, Initial residual = 6.60121e-06, Final residual = 1.42482e-11, No Iterations 2
DILUPBiCG:  Solving for T, Initial residual = 5.94012e-09, Final residual = 5.94012e-09, No Iterations 0
DILUPBiCG:  Solving for T, Initial residual = 5.94012e-09, Final residual = 5.94012e-09, No Iterations 0
 T goes from min(T) [0 0 0 0 0 0 0] 8.46123e-21 to max(T) [0 0 0 0 0 0 0] 0.953998

ExecutionTime = 39.43 s  ClockTime = 645 s

Time = 0.1625
Courant Number mean: 0.186795 max: 0.366707
DILUPBiCG:  Solving for T, Initial residual = 0.00339484, Final residual = 8.79119e-12, No Iterations 3
DILUPBiCG:  Solving for T, Initial residual = 6.61284e-06, Final residual = 1.47791e-11, No Iterations 2
DILUPBiCG:  Solving for T, Initial residual = 5.97856e-09, Final residual = 5.97856e-09, No Iterations 0
DILUPBiCG:  Solving for T, Initial residual = 5.97856e-09, Final residual = 5.97856e-09, No Iterations 0
 T goes from min(T) [0 0 0 0 0 0 0] 8.64327e-21 to max(T) [0 0 0 0 0 0 0] 0.954119

ExecutionTime = 39.92 s  ClockTime = 654 s

Time = 0.165
Courant Number mean: 0.186783 max: 0.366661
DILUPBiCG:  Solving for T, Initial residual = 0.00339501, Final residual = 8.70515e-12, No Iterations 3
DILUPBiCG:  Solving for T, Initial residual = 6.62529e-06, Final residual = 1.53799e-11, No Iterations 2
DILUPBiCG:  Solving for T, Initial residual = 6.01823e-09, Final residual = 6.01823e-09, No Iterations 0
DILUPBiCG:  Solving for T, Initial residual = 6.01823e-09, Final residual = 6.01823e-09, No Iterations 0
 T goes from min(T) [0 0 0 0 0 0 0] 8.92718e-21 to max(T) [0 0 0 0 0 0 0] 0.954055

ExecutionTime = 40.5 s  ClockTime = 663 s

Time = 0.1675
Courant Number mean: 0.186769 max: 0.366617
DILUPBiCG:  Solving for T, Initial residual = 0.0033952, Final residual = 8.61824e-12, No Iterations 3
DILUPBiCG:  Solving for T, Initial residual = 6.63762e-06, Final residual = 1.60565e-11, No Iterations 2
DILUPBiCG:  Solving for T, Initial residual = 6.05979e-09, Final residual = 6.05979e-09, No Iterations 0
DILUPBiCG:  Solving for T, Initial residual = 6.05979e-09, Final residual = 6.05979e-09, No Iterations 0
 T goes from min(T) [0 0 0 0 0 0 0] 9.16764e-21 to max(T) [0 0 0 0 0 0 0] 0.953809

ExecutionTime = 41 s  ClockTime = 672 s

Time = 0.17
Courant Number mean: 0.186752 max: 0.366584
DILUPBiCG:  Solving for T, Initial residual = 0.00339519, Final residual = 8.53031e-12, No Iterations 3
DILUPBiCG:  Solving for T, Initial residual = 6.64953e-06, Final residual = 1.68304e-11, No Iterations 2
DILUPBiCG:  Solving for T, Initial residual = 6.10314e-09, Final residual = 6.10314e-09, No Iterations 0
DILUPBiCG:  Solving for T, Initial residual = 6.10314e-09, Final residual = 6.10314e-09, No Iterations 0
 T goes from min(T) [0 0 0 0 0 0 0] 8.80908e-21 to max(T) [0 0 0 0 0 0 0] 0.953386

ExecutionTime = 41.5 s  ClockTime = 680 s

Time = 0.1725
Courant Number mean: 0.186733 max: 0.366544
DILUPBiCG:  Solving for T, Initial residual = 0.00339539, Final residual = 8.44269e-12, No Iterations 3
DILUPBiCG:  Solving for T, Initial residual = 6.66173e-06, Final residual = 1.77141e-11, No Iterations 2
DILUPBiCG:  Solving for T, Initial residual = 6.14676e-09, Final residual = 6.14676e-09, No Iterations 0
DILUPBiCG:  Solving for T, Initial residual = 6.14676e-09, Final residual = 6.14676e-09, No Iterations 0
 T goes from min(T) [0 0 0 0 0 0 0] 8.55339e-21 to max(T) [0 0 0 0 0 0 0] 0.953443

ExecutionTime = 42 s  ClockTime = 689 s

Time = 0.175
Courant Number mean: 0.186711 max: 0.366496
DILUPBiCG:  Solving for T, Initial residual = 0.00339575, Final residual = 8.35503e-12, No Iterations 3
DILUPBiCG:  Solving for T, Initial residual = 6.67362e-06, Final residual = 1.87351e-11, No Iterations 2
DILUPBiCG:  Solving for T, Initial residual = 6.19047e-09, Final residual = 6.19047e-09, No Iterations 0
DILUPBiCG:  Solving for T, Initial residual = 6.19047e-09, Final residual = 6.19047e-09, No Iterations 0
 T goes from min(T) [0 0 0 0 0 0 0] 8.39946e-21 to max(T) [0 0 0 0 0 0 0] 0.953854

ExecutionTime = 42.52 s  ClockTime = 698 s

Time = 0.1775
Courant Number mean: 0.186689 max: 0.366447
DILUPBiCG:  Solving for T, Initial residual = 0.00339597, Final residual = 8.2673e-12, No Iterations 3
DILUPBiCG:  Solving for T, Initial residual = 6.68566e-06, Final residual = 1.99067e-11, No Iterations 2
DILUPBiCG:  Solving for T, Initial residual = 6.23435e-09, Final residual = 6.23435e-09, No Iterations 0
DILUPBiCG:  Solving for T, Initial residual = 6.23435e-09, Final residual = 6.23435e-09, No Iterations 0
 T goes from min(T) [0 0 0 0 0 0 0] 8.34648e-21 to max(T) [0 0 0 0 0 0 0] 0.954074

ExecutionTime = 43.05 s  ClockTime = 707 s

Time = 0.18
Courant Number mean: 0.186682 max: 0.366412
DILUPBiCG:  Solving for T, Initial residual = 0.00339607, Final residual = 8.1787e-12, No Iterations 3
DILUPBiCG:  Solving for T, Initial residual = 6.69799e-06, Final residual = 2.12247e-11, No Iterations 2
DILUPBiCG:  Solving for T, Initial residual = 6.27826e-09, Final residual = 6.27826e-09, No Iterations 0
DILUPBiCG:  Solving for T, Initial residual = 6.27826e-09, Final residual = 6.27826e-09, No Iterations 0
 T goes from min(T) [0 0 0 0 0 0 0] 8.394e-21 to max(T) [0 0 0 0 0 0 0] 0.954114

ExecutionTime = 43.57 s  ClockTime = 716 s

Time = 0.1825
Courant Number mean: 0.186671 max: 0.36637
DILUPBiCG:  Solving for T, Initial residual = 0.00339619, Final residual = 8.09286e-12, No Iterations 3
DILUPBiCG:  Solving for T, Initial residual = 6.71021e-06, Final residual = 2.27353e-11, No Iterations 2
DILUPBiCG:  Solving for T, Initial residual = 6.32211e-09, Final residual = 6.32211e-09, No Iterations 0
DILUPBiCG:  Solving for T, Initial residual = 6.32211e-09, Final residual = 6.32211e-09, No Iterations 0
 T goes from min(T) [0 0 0 0 0 0 0] 8.54188e-21 to max(T) [0 0 0 0 0 0 0] 0.953978

ExecutionTime = 44.08 s  ClockTime = 724 s

Time = 0.185
Courant Number mean: 0.186658 max: 0.366322
DILUPBiCG:  Solving for T, Initial residual = 0.00339643, Final residual = 8.00837e-12, No Iterations 3
DILUPBiCG:  Solving for T, Initial residual = 6.72267e-06, Final residual = 2.44652e-11, No Iterations 2
DILUPBiCG:  Solving for T, Initial residual = 6.368e-09, Final residual = 6.368e-09, No Iterations 0
DILUPBiCG:  Solving for T, Initial residual = 6.368e-09, Final residual = 6.368e-09, No Iterations 0
 T goes from min(T) [0 0 0 0 0 0 0] 8.79035e-21 to max(T) [0 0 0 0 0 0 0] 0.953668

ExecutionTime = 44.58 s  ClockTime = 733 s

Time = 0.1875
Courant Number mean: 0.186643 max: 0.366266
DILUPBiCG:  Solving for T, Initial residual = 0.00339645, Final residual = 7.92397e-12, No Iterations 3
DILUPBiCG:  Solving for T, Initial residual = 6.73502e-06, Final residual = 2.64541e-11, No Iterations 2
DILUPBiCG:  Solving for T, Initial residual = 6.41513e-09, Final residual = 6.41513e-09, No Iterations 0
DILUPBiCG:  Solving for T, Initial residual = 6.41513e-09, Final residual = 6.41513e-09, No Iterations 0
 T goes from min(T) [0 0 0 0 0 0 0] 9.13996e-21 to max(T) [0 0 0 0 0 0 0] 0.953191

ExecutionTime = 45.09 s  ClockTime = 741 s

Time = 0.19
Courant Number mean: 0.186625 max: 0.36623
DILUPBiCG:  Solving for T, Initial residual = 0.00339643, Final residual = 7.84079e-12, No Iterations 3
DILUPBiCG:  Solving for T, Initial residual = 6.74745e-06, Final residual = 2.87677e-11, No Iterations 2
DILUPBiCG:  Solving for T, Initial residual = 6.46238e-09, Final residual = 6.46238e-09, No Iterations 0
DILUPBiCG:  Solving for T, Initial residual = 6.46238e-09, Final residual = 6.46238e-09, No Iterations 0
 T goes from min(T) [0 0 0 0 0 0 0] 8.87687e-21 to max(T) [0 0 0 0 0 0 0] 0.953653

ExecutionTime = 45.59 s  ClockTime = 749 s

Time = 0.1925
Courant Number mean: 0.186605 max: 0.366187
DILUPBiCG:  Solving for T, Initial residual = 0.0033967, Final residual = 7.75883e-12, No Iterations 3
DILUPBiCG:  Solving for T, Initial residual = 6.75972e-06, Final residual = 3.14919e-11, No Iterations 2
DILUPBiCG:  Solving for T, Initial residual = 6.51069e-09, Final residual = 6.51069e-09, No Iterations 0
DILUPBiCG:  Solving for T, Initial residual = 6.51069e-09, Final residual = 6.51069e-09, No Iterations 0
 T goes from min(T) [0 0 0 0 0 0 0] 8.59253e-21 to max(T) [0 0 0 0 0 0 0] 0.953972

ExecutionTime = 46.09 s  ClockTime = 757 s

Time = 0.195
Courant Number mean: 0.186582 max: 0.366137
DILUPBiCG:  Solving for T, Initial residual = 0.00339689, Final residual = 7.67758e-12, No Iterations 3
DILUPBiCG:  Solving for T, Initial residual = 6.77179e-06, Final residual = 3.47302e-11, No Iterations 2
DILUPBiCG:  Solving for T, Initial residual = 6.55834e-09, Final residual = 6.55834e-09, No Iterations 0
DILUPBiCG:  Solving for T, Initial residual = 6.55834e-09, Final residual = 6.55834e-09, No Iterations 0
 T goes from min(T) [0 0 0 0 0 0 0] 8.40907e-21 to max(T) [0 0 0 0 0 0 0] 0.954113

ExecutionTime = 46.58 s  ClockTime = 765 s

Time = 0.1975
Courant Number mean: 0.186556 max: 0.36608
DILUPBiCG:  Solving for T, Initial residual = 0.00339701, Final residual = 7.60009e-12, No Iterations 3
DILUPBiCG:  Solving for T, Initial residual = 6.78454e-06, Final residual = 3.8681e-11, No Iterations 2
DILUPBiCG:  Solving for T, Initial residual = 6.60759e-09, Final residual = 6.60759e-09, No Iterations 0
DILUPBiCG:  Solving for T, Initial residual = 6.60759e-09, Final residual = 6.60759e-09, No Iterations 0
 T goes from min(T) [0 0 0 0 0 0 0] 8.3256e-21 to max(T) [0 0 0 0 0 0 0] 0.954082

ExecutionTime = 47.06 s  ClockTime = 773 s

Time = 0.2
Courant Number mean: 0.186545 max: 0.366038
DILUPBiCG:  Solving for T, Initial residual = 0.00339707, Final residual = 7.52359e-12, No Iterations 3
DILUPBiCG:  Solving for T, Initial residual = 6.79699e-06, Final residual = 4.34974e-11, No Iterations 2
DILUPBiCG:  Solving for T, Initial residual = 6.65638e-09, Final residual = 6.65638e-09, No Iterations 0
DILUPBiCG:  Solving for T, Initial residual = 6.65638e-09, Final residual = 6.65638e-09, No Iterations 0
 T goes from min(T) [0 0 0 0 0 0 0] 8.34158e-21 to max(T) [0 0 0 0 0 0 0] 0.953881

ExecutionTime = 47.56 s  ClockTime = 781 s

Time = 0.2025
Courant Number mean: 0.186533 max: 0.365994
DILUPBiCG:  Solving for T, Initial residual = 0.00339717, Final residual = 7.45376e-12, No Iterations 3
DILUPBiCG:  Solving for T, Initial residual = 6.80929e-06, Final residual = 5.00533e-11, No Iterations 2
DILUPBiCG:  Solving for T, Initial residual = 6.7068e-09, Final residual = 6.7068e-09, No Iterations 0
DILUPBiCG:  Solving for T, Initial residual = 6.7068e-09, Final residual = 6.7068e-09, No Iterations 0
 T goes from min(T) [0 0 0 0 0 0 0] 8.45683e-21 to max(T) [0 0 0 0 0 0 0] 0.953517

ExecutionTime = 48.04 s  ClockTime = 788 s

Time = 0.205
Courant Number mean: 0.186519 max: 0.365943
DILUPBiCG:  Solving for T, Initial residual = 0.00339737, Final residual = 7.38761e-12, No Iterations 3
DILUPBiCG:  Solving for T, Initial residual = 6.82175e-06, Final residual = 5.91007e-11, No Iterations 2
DILUPBiCG:  Solving for T, Initial residual = 6.75872e-09, Final residual = 6.75872e-09, No Iterations 0
DILUPBiCG:  Solving for T, Initial residual = 6.75872e-09, Final residual = 6.75872e-09, No Iterations 0
 T goes from min(T) [0 0 0 0 0 0 0] 8.67149e-21 to max(T) [0 0 0 0 0 0 0] 0.953447

ExecutionTime = 48.56 s  ClockTime = 796 s

Time = 0.2075
Courant Number mean: 0.186503 max: 0.365884
DILUPBiCG:  Solving for T, Initial residual = 0.00339738, Final residual = 7.32267e-12, No Iterations 3
DILUPBiCG:  Solving for T, Initial residual = 6.83457e-06, Final residual = 7.13164e-11, No Iterations 2
DILUPBiCG:  Solving for T, Initial residual = 6.811e-09, Final residual = 6.811e-09, No Iterations 0
DILUPBiCG:  Solving for T, Initial residual = 6.811e-09, Final residual = 6.811e-09, No Iterations 0
 T goes from min(T) [0 0 0 0 0 0 0] 8.98609e-21 to max(T) [0 0 0 0 0 0 0] 0.953833

ExecutionTime = 49.08 s  ClockTime = 804 s

Time = 0.21
Courant Number mean: 0.186484 max: 0.365837
DILUPBiCG:  Solving for T, Initial residual = 0.00339723, Final residual = 7.261e-12, No Iterations 3
DILUPBiCG:  Solving for T, Initial residual = 6.84735e-06, Final residual = 8.84727e-11, No Iterations 2
DILUPBiCG:  Solving for T, Initial residual = 6.86619e-09, Final residual = 6.86619e-09, No Iterations 0
DILUPBiCG:  Solving for T, Initial residual = 6.86619e-09, Final residual = 6.86619e-09, No Iterations 0
 T goes from min(T) [0 0 0 0 0 0 0] 8.95519e-21 to max(T) [0 0 0 0 0 0 0] 0.95406

ExecutionTime = 49.59 s  ClockTime = 811 s

Time = 0.2125
Courant Number mean: 0.186463 max: 0.365791
DILUPBiCG:  Solving for T, Initial residual = 0.00339733, Final residual = 7.20246e-12, No Iterations 3
DILUPBiCG:  Solving for T, Initial residual = 6.86013e-06, Final residual = 1.13966e-10, No Iterations 2
DILUPBiCG:  Solving for T, Initial residual = 6.92327e-09, Final residual = 6.92327e-09, No Iterations 0
DILUPBiCG:  Solving for T, Initial residual = 6.92327e-09, Final residual = 6.92327e-09, No Iterations 0
 T goes from min(T) [0 0 0 0 0 0 0] 8.64292e-21 to max(T) [0 0 0 0 0 0 0] 0.95413

ExecutionTime = 50.11 s  ClockTime = 819 s

Time = 0.215
Courant Number mean: 0.186439 max: 0.365738
DILUPBiCG:  Solving for T, Initial residual = 0.0033975, Final residual = 7.14516e-12, No Iterations 3
DILUPBiCG:  Solving for T, Initial residual = 6.87295e-06, Final residual = 1.55574e-10, No Iterations 2
DILUPBiCG:  Solving for T, Initial residual = 6.98818e-09, Final residual = 6.98818e-09, No Iterations 0
DILUPBiCG:  Solving for T, Initial residual = 6.98818e-09, Final residual = 6.98818e-09, No Iterations 0
 T goes from min(T) [0 0 0 0 0 0 0] 8.43082e-21 to max(T) [0 0 0 0 0 0 0] 0.954037

ExecutionTime = 50.6 s  ClockTime = 826 s

Time = 0.2175
Courant Number mean: 0.186413 max: 0.365679
DILUPBiCG:  Solving for T, Initial residual = 0.00339774, Final residual = 7.09067e-12, No Iterations 3
DILUPBiCG:  Solving for T, Initial residual = 6.88604e-06, Final residual = 2.35558e-10, No Iterations 2
DILUPBiCG:  Solving for T, Initial residual = 7.06574e-09, Final residual = 7.06574e-09, No Iterations 0
DILUPBiCG:  Solving for T, Initial residual = 7.06574e-09, Final residual = 7.06574e-09, No Iterations 0
 T goes from min(T) [0 0 0 0 0 0 0] 8.31791e-21 to max(T) [0 0 0 0 0 0 0] 0.953782

ExecutionTime = 51.1 s  ClockTime = 834 s

Time = 0.22
Courant Number mean: 0.186393 max: 0.365625
DILUPBiCG:  Solving for T, Initial residual = 0.0033978, Final residual = 7.03819e-12, No Iterations 3
DILUPBiCG:  Solving for T, Initial residual = 6.89851e-06, Final residual = 4.45408e-10, No Iterations 2
DILUPBiCG:  Solving for T, Initial residual = 7.18668e-09, Final residual = 7.18668e-09, No Iterations 0
DILUPBiCG:  Solving for T, Initial residual = 7.18668e-09, Final residual = 7.18668e-09, No Iterations 0
 T goes from min(T) [0 0 0 0 0 0 0] 8.30354e-21 to max(T) [0 0 0 0 0 0 0] 0.953372

ExecutionTime = 51.61 s  ClockTime = 842 s

Time = 0.2225
Courant Number mean: 0.186381 max: 0.365578
DILUPBiCG:  Solving for T, Initial residual = 0.00339788, Final residual = 6.98323e-12, No Iterations 3
DILUPBiCG:  Solving for T, Initial residual = 6.91119e-06, Final residual = 2.48813e-09, No Iterations 2
DILUPBiCG:  Solving for T, Initial residual = 8.22106e-09, Final residual = 8.22106e-09, No Iterations 0
DILUPBiCG:  Solving for T, Initial residual = 8.22106e-09, Final residual = 8.22106e-09, No Iterations 0
 T goes from min(T) [0 0 0 0 0 0 0] 8.38747e-21 to max(T) [0 0 0 0 0 0 0] 0.953604

ExecutionTime = 52.12 s  ClockTime = 849 s

Time = 0.225
Courant Number mean: 0.186366 max: 0.365524
DILUPBiCG:  Solving for T, Initial residual = 0.00339805, Final residual = 6.93372e-12, No Iterations 3
DILUPBiCG:  Solving for T, Initial residual = 6.92401e-06, Final residual = 7.46489e-10, No Iterations 2
DILUPBiCG:  Solving for T, Initial residual = 6.99404e-09, Final residual = 6.99404e-09, No Iterations 0
DILUPBiCG:  Solving for T, Initial residual = 6.99404e-09, Final residual = 6.99404e-09, No Iterations 0
 T goes from min(T) [0 0 0 0 0 0 0] 8.56977e-21 to max(T) [0 0 0 0 0 0 0] 0.953941

ExecutionTime = 52.66 s  ClockTime = 857 s

Time = 0.2275
Courant Number mean: 0.186349 max: 0.365463
DILUPBiCG:  Solving for T, Initial residual = 0.00339803, Final residual = 6.88616e-12, No Iterations 3
DILUPBiCG:  Solving for T, Initial residual = 6.93709e-06, Final residual = 3.34465e-10, No Iterations 2
DILUPBiCG:  Solving for T, Initial residual = 7.12134e-09, Final residual = 7.12134e-09, No Iterations 0
DILUPBiCG:  Solving for T, Initial residual = 7.12134e-09, Final residual = 7.12134e-09, No Iterations 0
 T goes from min(T) [0 0 0 0 0 0 0] 8.85091e-21 to max(T) [0 0 0 0 0 0 0] 0.954114

ExecutionTime = 53.16 s  ClockTime = 865 s

Time = 0.23
Courant Number mean: 0.186329 max: 0.365404
DILUPBiCG:  Solving for T, Initial residual = 0.00339786, Final residual = 6.83852e-12, No Iterations 3
DILUPBiCG:  Solving for T, Initial residual = 6.95058e-06, Final residual = 2.19367e-10, No Iterations 2
DILUPBiCG:  Solving for T, Initial residual = 7.20109e-09, Final residual = 7.20109e-09, No Iterations 0
DILUPBiCG:  Solving for T, Initial residual = 7.20109e-09, Final residual = 7.20109e-09, No Iterations 0
 T goes from min(T) [0 0 0 0 0 0 0] 9.044e-21 to max(T) [0 0 0 0 0 0 0] 0.954126

ExecutionTime = 53.67 s  ClockTime = 872 s

Time = 0.2325
Courant Number mean: 0.186307 max: 0.365356
DILUPBiCG:  Solving for T, Initial residual = 0.00339786, Final residual = 6.79212e-12, No Iterations 3
DILUPBiCG:  Solving for T, Initial residual = 6.96383e-06, Final residual = 1.6513e-10, No Iterations 2
DILUPBiCG:  Solving for T, Initial residual = 7.27086e-09, Final residual = 7.27086e-09, No Iterations 0
DILUPBiCG:  Solving for T, Initial residual = 7.27086e-09, Final residual = 7.27086e-09, No Iterations 0
 T goes from min(T) [0 0 0 0 0 0 0] 8.70445e-21 to max(T) [0 0 0 0 0 0 0] 0.953981

ExecutionTime = 54.19 s  ClockTime = 880 s

Time = 0.235
Courant Number mean: 0.186282 max: 0.3653
DILUPBiCG:  Solving for T, Initial residual = 0.00339815, Final residual = 6.74763e-12, No Iterations 3
DILUPBiCG:  Solving for T, Initial residual = 6.97693e-06, Final residual = 1.33511e-10, No Iterations 2
DILUPBiCG:  Solving for T, Initial residual = 7.33645e-09, Final residual = 7.33645e-09, No Iterations 0
DILUPBiCG:  Solving for T, Initial residual = 7.33645e-09, Final residual = 7.33645e-09, No Iterations 0
 T goes from min(T) [0 0 0 0 0 0 0] 8.46449e-21 to max(T) [0 0 0 0 0 0 0] 0.953684

ExecutionTime = 54.71 s  ClockTime = 888 s

Time = 0.2375
Courant Number mean: 0.186254 max: 0.365238
DILUPBiCG:  Solving for T, Initial residual = 0.00339817, Final residual = 6.70396e-12, No Iterations 3
DILUPBiCG:  Solving for T, Initial residual = 6.99071e-06, Final residual = 1.12819e-10, No Iterations 2
DILUPBiCG:  Solving for T, Initial residual = 7.40006e-09, Final residual = 7.40006e-09, No Iterations 0
DILUPBiCG:  Solving for T, Initial residual = 7.40006e-09, Final residual = 7.40006e-09, No Iterations 0
 T goes from min(T) [0 0 0 0 0 0 0] 8.32304e-21 to max(T) [0 0 0 0 0 0 0] 0.953283

ExecutionTime = 55.21 s  ClockTime = 895 s

Time = 0.24
Courant Number mean: 0.186227 max: 0.365173
DILUPBiCG:  Solving for T, Initial residual = 0.00339824, Final residual = 6.66445e-12, No Iterations 3
DILUPBiCG:  Solving for T, Initial residual = 7.00404e-06, Final residual = 9.82876e-11, No Iterations 2
DILUPBiCG:  Solving for T, Initial residual = 7.46261e-09, Final residual = 7.46261e-09, No Iterations 0
DILUPBiCG:  Solving for T, Initial residual = 7.46261e-09, Final residual = 7.46261e-09, No Iterations 0
 T goes from min(T) [0 0 0 0 0 0 0] 8.27937e-21 to max(T) [0 0 0 0 0 0 0] 0.953719

ExecutionTime = 55.73 s  ClockTime = 903 s

Time = 0.2425
Courant Number mean: 0.186214 max: 0.365123
DILUPBiCG:  Solving for T, Initial residual = 0.00339831, Final residual = 6.61634e-12, No Iterations 3
DILUPBiCG:  Solving for T, Initial residual = 7.01679e-06, Final residual = 8.77351e-11, No Iterations 2
DILUPBiCG:  Solving for T, Initial residual = 7.519e-09, Final residual = 7.519e-09, No Iterations 0
DILUPBiCG:  Solving for T, Initial residual = 7.519e-09, Final residual = 7.519e-09, No Iterations 0
 T goes from min(T) [0 0 0 0 0 0 0] 8.33313e-21 to max(T) [0 0 0 0 0 0 0] 0.953995

ExecutionTime = 56.21 s  ClockTime = 911 s

Time = 0.245
Courant Number mean: 0.186199 max: 0.365066
DILUPBiCG:  Solving for T, Initial residual = 0.0033986, Final residual = 6.57529e-12, No Iterations 3
DILUPBiCG:  Solving for T, Initial residual = 7.02955e-06, Final residual = 7.94871e-11, No Iterations 2
DILUPBiCG:  Solving for T, Initial residual = 7.57563e-09, Final residual = 7.57563e-09, No Iterations 0
DILUPBiCG:  Solving for T, Initial residual = 7.57563e-09, Final residual = 7.57563e-09, No Iterations 0
 T goes from min(T) [0 0 0 0 0 0 0] 8.48434e-21 to max(T) [0 0 0 0 0 0 0] 0.954114

ExecutionTime = 56.72 s  ClockTime = 918 s

Time = 0.2475
Courant Number mean: 0.186181 max: 0.365002
DILUPBiCG:  Solving for T, Initial residual = 0.00339869, Final residual = 6.53572e-12, No Iterations 3
DILUPBiCG:  Solving for T, Initial residual = 7.04271e-06, Final residual = 7.28582e-11, No Iterations 2
DILUPBiCG:  Solving for T, Initial residual = 7.63155e-09, Final residual = 7.63155e-09, No Iterations 0
DILUPBiCG:  Solving for T, Initial residual = 7.63155e-09, Final residual = 7.63155e-09, No Iterations 0
 T goes from min(T) [0 0 0 0 0 0 0] 8.73337e-21 to max(T) [0 0 0 0 0 0 0] 0.954079

ExecutionTime = 57.22 s  ClockTime = 926 s

Time = 0.25
Courant Number mean: 0.18616 max: 0.364932
DILUPBiCG:  Solving for T, Initial residual = 0.00339846, Final residual = 6.49642e-12, No Iterations 3
DILUPBiCG:  Solving for T, Initial residual = 7.05722e-06, Final residual = 6.74113e-11, No Iterations 2
DILUPBiCG:  Solving for T, Initial residual = 7.68964e-09, Final residual = 7.68964e-09, No Iterations 0
DILUPBiCG:  Solving for T, Initial residual = 7.68964e-09, Final residual = 7.68964e-09, No Iterations 0
 T goes from min(T) [0 0 0 0 0 0 0] 9.08099e-21 to max(T) [0 0 0 0 0 0 0] 0.953896

ExecutionTime = 57.73 s  ClockTime = 933 s

Time = 0.2525
Courant Number mean: 0.186137 max: 0.364881
DILUPBiCG:  Solving for T, Initial residual = 0.00339832, Final residual = 6.4582e-12, No Iterations 3
DILUPBiCG:  Solving for T, Initial residual = 7.07149e-06, Final residual = 6.28504e-11, No Iterations 2
DILUPBiCG:  Solving for T, Initial residual = 7.75152e-09, Final residual = 7.75152e-09, No Iterations 0
DILUPBiCG:  Solving for T, Initial residual = 7.75152e-09, Final residual = 7.75152e-09, No Iterations 0
 T goes from min(T) [0 0 0 0 0 0 0] 8.77687e-21 to max(T) [0 0 0 0 0 0 0] 0.953645

ExecutionTime = 58.28 s  ClockTime = 942 s

Time = 0.255
Courant Number mean: 0.186111 max: 0.364823
DILUPBiCG:  Solving for T, Initial residual = 0.00339859, Final residual = 6.42152e-12, No Iterations 3
DILUPBiCG:  Solving for T, Initial residual = 7.08518e-06, Final residual = 5.89621e-11, No Iterations 2
DILUPBiCG:  Solving for T, Initial residual = 7.81419e-09, Final residual = 7.81419e-09, No Iterations 0
DILUPBiCG:  Solving for T, Initial residual = 7.81419e-09, Final residual = 7.81419e-09, No Iterations 0
 T goes from min(T) [0 0 0 0 0 0 0] 8.50974e-21 to max(T) [0 0 0 0 0 0 0] 0.953322

ExecutionTime = 58.8 s  ClockTime = 949 s

Time = 0.2575
Courant Number mean: 0.186082 max: 0.364758
DILUPBiCG:  Solving for T, Initial residual = 0.00339874, Final residual = 6.38476e-12, No Iterations 3
DILUPBiCG:  Solving for T, Initial residual = 7.09832e-06, Final residual = 5.56044e-11, No Iterations 2
DILUPBiCG:  Solving for T, Initial residual = 7.87893e-09, Final residual = 7.87893e-09, No Iterations 0
DILUPBiCG:  Solving for T, Initial residual = 7.87893e-09, Final residual = 7.87893e-09, No Iterations 0
 T goes from min(T) [0 0 0 0 0 0 0] 8.34055e-21 to max(T) [0 0 0 0 0 0 0] 0.953704

ExecutionTime = 59.3 s  ClockTime = 957 s

Time = 0.26
Courant Number mean: 0.186051 max: 0.364686
DILUPBiCG:  Solving for T, Initial residual = 0.00339895, Final residual = 6.35195e-12, No Iterations 3
DILUPBiCG:  Solving for T, Initial residual = 7.1116e-06, Final residual = 5.26807e-11, No Iterations 2
DILUPBiCG:  Solving for T, Initial residual = 7.94512e-09, Final residual = 7.94512e-09, No Iterations 0
DILUPBiCG:  Solving for T, Initial residual = 7.94512e-09, Final residual = 7.94512e-09, No Iterations 0
 T goes from min(T) [0 0 0 0 0 0 0] 8.26849e-21 to max(T) [0 0 0 0 0 0 0] 0.953933

ExecutionTime = 59.8 s  ClockTime = 964 s

Time = 0.2625
Courant Number mean: 0.186034 max: 0.364629
DILUPBiCG:  Solving for T, Initial residual = 0.00339899, Final residual = 6.31152e-12, No Iterations 3
DILUPBiCG:  Solving for T, Initial residual = 7.1257e-06, Final residual = 5.01856e-11, No Iterations 2
DILUPBiCG:  Solving for T, Initial residual = 8.00313e-09, Final residual = 8.00313e-09, No Iterations 0
DILUPBiCG:  Solving for T, Initial residual = 8.00313e-09, Final residual = 8.00313e-09, No Iterations 0
 T goes from min(T) [0 0 0 0 0 0 0] 8.29312e-21 to max(T) [0 0 0 0 0 0 0] 0.954104

ExecutionTime = 60.3 s  ClockTime = 972 s

Time = 0.265
Courant Number mean: 0.186017 max: 0.364569
DILUPBiCG:  Solving for T, Initial residual = 0.00339917, Final residual = 6.27248e-12, No Iterations 3
DILUPBiCG:  Solving for T, Initial residual = 7.13971e-06, Final residual = 4.79774e-11, No Iterations 2
DILUPBiCG:  Solving for T, Initial residual = 8.06235e-09, Final residual = 8.06235e-09, No Iterations 0
DILUPBiCG:  Solving for T, Initial residual = 8.06235e-09, Final residual = 8.06235e-09, No Iterations 0
 T goes from min(T) [0 0 0 0 0 0 0] 8.41435e-21 to max(T) [0 0 0 0 0 0 0] 0.953993

ExecutionTime = 60.79 s  ClockTime = 979 s

Time = 0.2675
Courant Number mean: 0.185998 max: 0.364502
DILUPBiCG:  Solving for T, Initial residual = 0.00339944, Final residual = 6.23879e-12, No Iterations 3
DILUPBiCG:  Solving for T, Initial residual = 7.15359e-06, Final residual = 4.59967e-11, No Iterations 2
DILUPBiCG:  Solving for T, Initial residual = 8.12192e-09, Final residual = 8.12192e-09, No Iterations 0
DILUPBiCG:  Solving for T, Initial residual = 8.12192e-09, Final residual = 8.12192e-09, No Iterations 0
 T goes from min(T) [0 0 0 0 0 0 0] 8.63251e-21 to max(T) [0 0 0 0 0 0 0] 0.953735

ExecutionTime = 61.28 s  ClockTime = 987 s

Time = 0.27
Courant Number mean: 0.185976 max: 0.364429
DILUPBiCG:  Solving for T, Initial residual = 0.00339942, Final residual = 6.2062e-12, No Iterations 3
DILUPBiCG:  Solving for T, Initial residual = 7.16755e-06, Final residual = 4.42079e-11, No Iterations 2
DILUPBiCG:  Solving for T, Initial residual = 8.18313e-09, Final residual = 8.18313e-09, No Iterations 0
DILUPBiCG:  Solving for T, Initial residual = 8.18313e-09, Final residual = 8.18313e-09, No Iterations 0
 T goes from min(T) [0 0 0 0 0 0 0] 8.94826e-21 to max(T) [0 0 0 0 0 0 0] 0.953388

ExecutionTime = 61.79 s  ClockTime = 994 s

Time = 0.2725
Courant Number mean: 0.185952 max: 0.364366
DILUPBiCG:  Solving for T, Initial residual = 0.00339928, Final residual = 6.17365e-12, No Iterations 3
DILUPBiCG:  Solving for T, Initial residual = 7.18208e-06, Final residual = 4.25832e-11, No Iterations 2
DILUPBiCG:  Solving for T, Initial residual = 8.24747e-09, Final residual = 8.24747e-09, No Iterations 0
DILUPBiCG:  Solving for T, Initial residual = 8.24747e-09, Final residual = 8.24747e-09, No Iterations 0
 T goes from min(T) [0 0 0 0 0 0 0] 8.85991e-21 to max(T) [0 0 0 0 0 0 0] 0.95327

ExecutionTime = 62.3 s  ClockTime = 1002 s

Time = 0.275
Courant Number mean: 0.185925 max: 0.364305
DILUPBiCG:  Solving for T, Initial residual = 0.0033994, Final residual = 6.14145e-12, No Iterations 3
DILUPBiCG:  Solving for T, Initial residual = 7.19689e-06, Final residual = 4.1103e-11, No Iterations 2
DILUPBiCG:  Solving for T, Initial residual = 8.31399e-09, Final residual = 8.31399e-09, No Iterations 0
DILUPBiCG:  Solving for T, Initial residual = 8.31399e-09, Final residual = 8.31399e-09, No Iterations 0
 T goes from min(T) [0 0 0 0 0 0 0] 8.5662e-21 to max(T) [0 0 0 0 0 0 0] 0.953676

ExecutionTime = 62.8 s  ClockTime = 1009 s

Time = 0.2775
Courant Number mean: 0.185896 max: 0.364238
DILUPBiCG:  Solving for T, Initial residual = 0.00339963, Final residual = 6.1089e-12, No Iterations 3
DILUPBiCG:  Solving for T, Initial residual = 7.21161e-06, Final residual = 3.97445e-11, No Iterations 2
DILUPBiCG:  Solving for T, Initial residual = 8.38161e-09, Final residual = 8.38161e-09, No Iterations 0
DILUPBiCG:  Solving for T, Initial residual = 8.38161e-09, Final residual = 8.38161e-09, No Iterations 0
 T goes from min(T) [0 0 0 0 0 0 0] 8.36999e-21 to max(T) [0 0 0 0 0 0 0] 0.953712

ExecutionTime = 63.3 s  ClockTime = 1017 s

Time = 0.28
Courant Number mean: 0.185864 max: 0.364163
DILUPBiCG:  Solving for T, Initial residual = 0.00339972, Final residual = 6.079e-12, No Iterations 3
DILUPBiCG:  Solving for T, Initial residual = 7.22555e-06, Final residual = 3.84939e-11, No Iterations 2
DILUPBiCG:  Solving for T, Initial residual = 8.4508e-09, Final residual = 8.4508e-09, No Iterations 0
DILUPBiCG:  Solving for T, Initial residual = 8.4508e-09, Final residual = 8.4508e-09, No Iterations 0
 T goes from min(T) [0 0 0 0 0 0 0] 8.27036e-21 to max(T) [0 0 0 0 0 0 0] 0.953726

ExecutionTime = 63.81 s  ClockTime = 1024 s

Time = 0.2825
Courant Number mean: 0.185839 max: 0.364095
DILUPBiCG:  Solving for T, Initial residual = 0.00339978, Final residual = 6.04981e-12, No Iterations 3
DILUPBiCG:  Solving for T, Initial residual = 7.2389e-06, Final residual = 3.73564e-11, No Iterations 2
DILUPBiCG:  Solving for T, Initial residual = 8.51662e-09, Final residual = 8.51662e-09, No Iterations 0
DILUPBiCG:  Solving for T, Initial residual = 8.51662e-09, Final residual = 8.51662e-09, No Iterations 0
 T goes from min(T) [0 0 0 0 0 0 0] 8.26675e-21 to max(T) [0 0 0 0 0 0 0] 0.953835

ExecutionTime = 64.33 s  ClockTime = 1032 s

Time = 0.285
Courant Number mean: 0.185822 max: 0.364032
DILUPBiCG:  Solving for T, Initial residual = 0.00340004, Final residual = 6.01425e-12, No Iterations 3
DILUPBiCG:  Solving for T, Initial residual = 7.25343e-06, Final residual = 3.63203e-11, No Iterations 2
DILUPBiCG:  Solving for T, Initial residual = 8.57836e-09, Final residual = 8.57836e-09, No Iterations 0
DILUPBiCG:  Solving for T, Initial residual = 8.57836e-09, Final residual = 8.57836e-09, No Iterations 0
 T goes from min(T) [0 0 0 0 0 0 0] 8.35902e-21 to max(T) [0 0 0 0 0 0 0] 0.953953

ExecutionTime = 64.83 s  ClockTime = 1039 s

Time = 0.2875
Courant Number mean: 0.185802 max: 0.363963
DILUPBiCG:  Solving for T, Initial residual = 0.00340051, Final residual = 5.98416e-12, No Iterations 3
DILUPBiCG:  Solving for T, Initial residual = 7.26822e-06, Final residual = 3.53598e-11, No Iterations 2
DILUPBiCG:  Solving for T, Initial residual = 8.64225e-09, Final residual = 8.64225e-09, No Iterations 0
DILUPBiCG:  Solving for T, Initial residual = 8.64225e-09, Final residual = 8.64225e-09, No Iterations 0
 T goes from min(T) [0 0 0 0 0 0 0] 8.54739e-21 to max(T) [0 0 0 0 0 0 0] 0.953693

ExecutionTime = 65.35 s  ClockTime = 1046 s

Time = 0.29
Courant Number mean: 0.185779 max: 0.363887
DILUPBiCG:  Solving for T, Initial residual = 0.0034008, Final residual = 5.956e-12, No Iterations 3
DILUPBiCG:  Solving for T, Initial residual = 7.28356e-06, Final residual = 3.4465e-11, No Iterations 2
DILUPBiCG:  Solving for T, Initial residual = 8.71048e-09, Final residual = 8.71048e-09, No Iterations 0
DILUPBiCG:  Solving for T, Initial residual = 8.71048e-09, Final residual = 8.71048e-09, No Iterations 0
 T goes from min(T) [0 0 0 0 0 0 0] 8.83245e-21 to max(T) [0 0 0 0 0 0 0] 0.953055

ExecutionTime = 65.86 s  ClockTime = 1053 s

Time = 0.2925
Courant Number mean: 0.185754 max: 0.363813
DILUPBiCG:  Solving for T, Initial residual = 0.00340078, Final residual = 5.92917e-12, No Iterations 3
DILUPBiCG:  Solving for T, Initial residual = 7.29851e-06, Final residual = 3.36269e-11, No Iterations 2
DILUPBiCG:  Solving for T, Initial residual = 8.77963e-09, Final residual = 8.77963e-09, No Iterations 0
DILUPBiCG:  Solving for T, Initial residual = 8.77963e-09, Final residual = 8.77963e-09, No Iterations 0
 T goes from min(T) [0 0 0 0 0 0 0] 8.95324e-21 to max(T) [0 0 0 0 0 0 0] 0.953078

ExecutionTime = 66.35 s  ClockTime = 1060 s

Time = 0.295
Courant Number mean: 0.185726 max: 0.363749
DILUPBiCG:  Solving for T, Initial residual = 0.00340076, Final residual = 5.90314e-12, No Iterations 3
DILUPBiCG:  Solving for T, Initial residual = 7.31379e-06, Final residual = 3.28388e-11, No Iterations 2
DILUPBiCG:  Solving for T, Initial residual = 8.85072e-09, Final residual = 8.85072e-09, No Iterations 0
DILUPBiCG:  Solving for T, Initial residual = 8.85072e-09, Final residual = 8.85072e-09, No Iterations 0
 T goes from min(T) [0 0 0 0 0 0 0] 8.63349e-21 to max(T) [0 0 0 0 0 0 0] 0.953772

ExecutionTime = 66.88 s  ClockTime = 1067 s

Time = 0.2975
Courant Number mean: 0.185696 max: 0.363679
DILUPBiCG:  Solving for T, Initial residual = 0.00340097, Final residual = 5.87793e-12, No Iterations 3
DILUPBiCG:  Solving for T, Initial residual = 7.3294e-06, Final residual = 3.2097e-11, No Iterations 2
DILUPBiCG:  Solving for T, Initial residual = 8.92277e-09, Final residual = 8.92277e-09, No Iterations 0
DILUPBiCG:  Solving for T, Initial residual = 8.92277e-09, Final residual = 8.92277e-09, No Iterations 0
 T goes from min(T) [0 0 0 0 0 0 0] 8.41089e-21 to max(T) [0 0 0 0 0 0 0] 0.954095

ExecutionTime = 67.38 s  ClockTime = 1074 s

Time = 0.3
Courant Number mean: 0.185662 max: 0.363601
DILUPBiCG:  Solving for T, Initial residual = 0.00340126, Final residual = 5.85278e-12, No Iterations 3
DILUPBiCG:  Solving for T, Initial residual = 7.34454e-06, Final residual = 3.14008e-11, No Iterations 2
DILUPBiCG:  Solving for T, Initial residual = 8.99791e-09, Final residual = 8.99791e-09, No Iterations 0
DILUPBiCG:  Solving for T, Initial residual = 8.99791e-09, Final residual = 8.99791e-09, No Iterations 0
 T goes from min(T) [0 0 0 0 0 0 0] 8.2844e-21 to max(T) [0 0 0 0 0 0 0] 0.954043

ExecutionTime = 67.92 s  ClockTime = 1082 s

Time = 0.3025
Courant Number mean: 0.18563 max: 0.363521
DILUPBiCG:  Solving for T, Initial residual = 0.00340158, Final residual = 5.83394e-12, No Iterations 3
DILUPBiCG:  Solving for T, Initial residual = 7.35943e-06, Final residual = 3.07481e-11, No Iterations 2
DILUPBiCG:  Solving for T, Initial residual = 9.0726e-09, Final residual = 9.0726e-09, No Iterations 0
DILUPBiCG:  Solving for T, Initial residual = 9.0726e-09, Final residual = 9.0726e-09, No Iterations 0
 T goes from min(T) [0 0 0 0 0 0 0] 8.25339e-21 to max(T) [0 0 0 0 0 0 0] 0.953631

ExecutionTime = 68.44 s  ClockTime = 1089 s

Time = 0.305
Courant Number mean: 0.185612 max: 0.363456
DILUPBiCG:  Solving for T, Initial residual = 0.00340182, Final residual = 5.8052e-12, No Iterations 3
DILUPBiCG:  Solving for T, Initial residual = 7.37412e-06, Final residual = 3.01483e-11, No Iterations 2
DILUPBiCG:  Solving for T, Initial residual = 9.13899e-09, Final residual = 9.13899e-09, No Iterations 0
DILUPBiCG:  Solving for T, Initial residual = 9.13899e-09, Final residual = 9.13899e-09, No Iterations 0
 T goes from min(T) [0 0 0 0 0 0 0] 8.31759e-21 to max(T) [0 0 0 0 0 0 0] 0.953484

ExecutionTime = 68.95 s  ClockTime = 1096 s

Time = 0.3075
Courant Number mean: 0.185591 max: 0.363384
DILUPBiCG:  Solving for T, Initial residual = 0.00340216, Final residual = 5.77953e-12, No Iterations 3
DILUPBiCG:  Solving for T, Initial residual = 7.38992e-06, Final residual = 2.95768e-11, No Iterations 2
DILUPBiCG:  Solving for T, Initial residual = 9.20675e-09, Final residual = 9.20675e-09, No Iterations 0
DILUPBiCG:  Solving for T, Initial residual = 9.20675e-09, Final residual = 9.20675e-09, No Iterations 0
 T goes from min(T) [0 0 0 0 0 0 0] 8.47716e-21 to max(T) [0 0 0 0 0 0 0] 0.953366

ExecutionTime = 69.46 s  ClockTime = 1103 s

Time = 0.31
Courant Number mean: 0.185568 max: 0.363306
DILUPBiCG:  Solving for T, Initial residual = 0.00340267, Final residual = 5.75857e-12, No Iterations 3
DILUPBiCG:  Solving for T, Initial residual = 7.40617e-06, Final residual = 2.90368e-11, No Iterations 2
DILUPBiCG:  Solving for T, Initial residual = 9.27809e-09, Final residual = 9.27809e-09, No Iterations 0
DILUPBiCG:  Solving for T, Initial residual = 9.27809e-09, Final residual = 9.27809e-09, No Iterations 0
 T goes from min(T) [0 0 0 0 0 0 0] 8.73259e-21 to max(T) [0 0 0 0 0 0 0] 0.953493

ExecutionTime = 69.96 s  ClockTime = 1110 s

Time = 0.3125
Courant Number mean: 0.185542 max: 0.36322
DILUPBiCG:  Solving for T, Initial residual = 0.00340301, Final residual = 5.73923e-12, No Iterations 3
DILUPBiCG:  Solving for T, Initial residual = 7.42312e-06, Final residual = 2.853e-11, No Iterations 2
DILUPBiCG:  Solving for T, Initial residual = 9.35206e-09, Final residual = 9.35206e-09, No Iterations 0
DILUPBiCG:  Solving for T, Initial residual = 9.35206e-09, Final residual = 9.35206e-09, No Iterations 0
 T goes from min(T) [0 0 0 0 0 0 0] 9.05656e-21 to max(T) [0 0 0 0 0 0 0] 0.953733

ExecutionTime = 70.46 s  ClockTime = 1117 s

Time = 0.315
Courant Number mean: 0.185513 max: 0.363154
DILUPBiCG:  Solving for T, Initial residual = 0.0034031, Final residual = 5.72067e-12, No Iterations 3
DILUPBiCG:  Solving for T, Initial residual = 7.43963e-06, Final residual = 2.80494e-11, No Iterations 2
DILUPBiCG:  Solving for T, Initial residual = 9.42831e-09, Final residual = 9.42831e-09, No Iterations 0
DILUPBiCG:  Solving for T, Initial residual = 9.42831e-09, Final residual = 9.42831e-09, No Iterations 0
 T goes from min(T) [0 0 0 0 0 0 0] 8.71123e-21 to max(T) [0 0 0 0 0 0 0] 0.953913

ExecutionTime = 70.96 s  ClockTime = 1123 s

Time = 0.3175
Courant Number mean: 0.185482 max: 0.36308
DILUPBiCG:  Solving for T, Initial residual = 0.00340344, Final residual = 5.70261e-12, No Iterations 3
DILUPBiCG:  Solving for T, Initial residual = 7.45586e-06, Final residual = 2.75899e-11, No Iterations 2
DILUPBiCG:  Solving for T, Initial residual = 9.50789e-09, Final residual = 9.50789e-09, No Iterations 0
DILUPBiCG:  Solving for T, Initial residual = 9.50789e-09, Final residual = 9.50789e-09, No Iterations 0
 T goes from min(T) [0 0 0 0 0 0 0] 8.46278e-21 to max(T) [0 0 0 0 0 0 0] 0.954035

ExecutionTime = 71.46 s  ClockTime = 1130 s

Time = 0.32
Courant Number mean: 0.185448 max: 0.363
DILUPBiCG:  Solving for T, Initial residual = 0.00340394, Final residual = 5.68717e-12, No Iterations 3
DILUPBiCG:  Solving for T, Initial residual = 7.47244e-06, Final residual = 2.71475e-11, No Iterations 2
DILUPBiCG:  Solving for T, Initial residual = 9.5892e-09, Final residual = 9.5892e-09, No Iterations 0
DILUPBiCG:  Solving for T, Initial residual = 9.5892e-09, Final residual = 9.5892e-09, No Iterations 0
 T goes from min(T) [0 0 0 0 0 0 0] 8.31008e-21 to max(T) [0 0 0 0 0 0 0] 0.954027

ExecutionTime = 71.98 s  ClockTime = 1136 s

Time = 0.3225
Courant Number mean: 0.185411 max: 0.362913
DILUPBiCG:  Solving for T, Initial residual = 0.00340415, Final residual = 5.67855e-12, No Iterations 3
DILUPBiCG:  Solving for T, Initial residual = 7.48973e-06, Final residual = 2.6726e-11, No Iterations 2
DILUPBiCG:  Solving for T, Initial residual = 9.6745e-09, Final residual = 9.6745e-09, No Iterations 0
DILUPBiCG:  Solving for T, Initial residual = 9.6745e-09, Final residual = 9.6745e-09, No Iterations 0
 T goes from min(T) [0 0 0 0 0 0 0] 8.25238e-21 to max(T) [0 0 0 0 0 0 0] 0.953947

ExecutionTime = 72.48 s  ClockTime = 1143 s

Time = 0.325
Courant Number mean: 0.185389 max: 0.362841
DILUPBiCG:  Solving for T, Initial residual = 0.00340443, Final residual = 5.66168e-12, No Iterations 3
DILUPBiCG:  Solving for T, Initial residual = 7.50696e-06, Final residual = 2.63397e-11, No Iterations 2
DILUPBiCG:  Solving for T, Initial residual = 9.74991e-09, Final residual = 9.74991e-09, No Iterations 0
DILUPBiCG:  Solving for T, Initial residual = 9.74991e-09, Final residual = 9.74991e-09, No Iterations 0
 T goes from min(T) [0 0 0 0 0 0 0] 8.28934e-21 to max(T) [0 0 0 0 0 0 0] 0.953632

ExecutionTime = 72.98 s  ClockTime = 1149 s

Time = 0.3275
Courant Number mean: 0.185367 max: 0.362767
DILUPBiCG:  Solving for T, Initial residual = 0.00340474, Final residual = 5.64323e-12, No Iterations 3
DILUPBiCG:  Solving for T, Initial residual = 7.52374e-06, Final residual = 2.59734e-11, No Iterations 2
[...]
ExecutionTime = 1223.3 s  ClockTime = 5363 s

Time = 5.92
Courant Number mean: 0.173288 max: 0.327704
DILUPBiCG:  Solving for T, Initial residual = 0.00463239, Final residual = 4.57865e-09, No Iterations 2
DILUPBiCG:  Solving for T, Initial residual = 2.82204e-05, Final residual = 2.65841e-11, No Iterations 2
DILUPBiCG:  Solving for T, Initial residual = 5.35688e-07, Final residual = 1.06346e-09, No Iterations 1
DILUPBiCG:  Solving for T, Initial residual = 1.80654e-08, Final residual = 2.43601e-11, No Iterations 1
 T goes from min(T) [0 0 0 0 0 0 0] -0.0964268 to max(T) [0 0 0 0 0 0 0] 0.900881

ExecutionTime = 1223.83 s  ClockTime = 5364 s

Time = 5.9225
Courant Number mean: 0.173214 max: 0.327493
DILUPBiCG:  Solving for T, Initial residual = 0.00464019, Final residual = 4.58771e-09, No Iterations 2
DILUPBiCG:  Solving for T, Initial residual = 2.8264e-05, Final residual = 2.65761e-11, No Iterations 2
DILUPBiCG:  Solving for T, Initial residual = 5.37784e-07, Final residual = 1.03973e-09, No Iterations 1
DILUPBiCG:  Solving for T, Initial residual = 1.81466e-08, Final residual = 2.38344e-11, No Iterations 1
 T goes from min(T) [0 0 0 0 0 0 0] -0.0968336 to max(T) [0 0 0 0 0 0 0] 0.900611

ExecutionTime = 1224.37 s  ClockTime = 5365 s

Time = 5.925
Courant Number mean: 0.173139 max: 0.327275
DILUPBiCG:  Solving for T, Initial residual = 0.00464737, Final residual = 4.59586e-09, No Iterations 2
DILUPBiCG:  Solving for T, Initial residual = 2.83004e-05, Final residual = 2.65785e-11, No Iterations 2
DILUPBiCG:  Solving for T, Initial residual = 5.4004e-07, Final residual = 1.01925e-09, No Iterations 1
DILUPBiCG:  Solving for T, Initial residual = 1.81959e-08, Final residual = 2.31104e-11, No Iterations 1
 T goes from min(T) [0 0 0 0 0 0 0] -0.0972251 to max(T) [0 0 0 0 0 0 0] 0.900302

ExecutionTime = 1224.92 s  ClockTime = 5366 s

Time = 5.9275
Courant Number mean: 0.173064 max: 0.327055
DILUPBiCG:  Solving for T, Initial residual = 0.00465512, Final residual = 4.60263e-09, No Iterations 2
DILUPBiCG:  Solving for T, Initial residual = 2.83743e-05, Final residual = 2.65851e-11, No Iterations 2
DILUPBiCG:  Solving for T, Initial residual = 5.41639e-07, Final residual = 9.9333e-10, No Iterations 1
DILUPBiCG:  Solving for T, Initial residual = 1.82087e-08, Final residual = 2.22719e-11, No Iterations 1
 T goes from min(T) [0 0 0 0 0 0 0] -0.0972935 to max(T) [0 0 0 0 0 0 0] 0.899955

ExecutionTime = 1225.47 s  ClockTime = 5367 s

Time = 5.93
Courant Number mean: 0.173001 max: 0.326848
DILUPBiCG:  Solving for T, Initial residual = 0.00466308, Final residual = 4.60746e-09, No Iterations 2
DILUPBiCG:  Solving for T, Initial residual = 2.84718e-05, Final residual = 2.65914e-11, No Iterations 2
DILUPBiCG:  Solving for T, Initial residual = 5.4255e-07, Final residual = 9.66285e-10, No Iterations 1
DILUPBiCG:  Solving for T, Initial residual = 1.81919e-08, Final residual = 2.14983e-11, No Iterations 1
 T goes from min(T) [0 0 0 0 0 0 0] -0.0973571 to max(T) [0 0 0 0 0 0 0] 0.899573

ExecutionTime = 1225.98 s  ClockTime = 5368 s

Time = 5.9325
Courant Number mean: 0.172935 max: 0.326635
DILUPBiCG:  Solving for T, Initial residual = 0.00467105, Final residual = 4.6078e-09, No Iterations 2
DILUPBiCG:  Solving for T, Initial residual = 2.85532e-05, Final residual = 2.6597e-11, No Iterations 2
DILUPBiCG:  Solving for T, Initial residual = 5.43063e-07, Final residual = 9.40608e-10, No Iterations 1
DILUPBiCG:  Solving for T, Initial residual = 1.82688e-08, Final residual = 2.08229e-11, No Iterations 1
 T goes from min(T) [0 0 0 0 0 0 0] -0.09717 to max(T) [0 0 0 0 0 0 0] 0.899156

ExecutionTime = 1226.51 s  ClockTime = 5368 s

Time = 5.935
Courant Number mean: 0.172868 max: 0.326416
DILUPBiCG:  Solving for T, Initial residual = 0.00467752, Final residual = 4.60129e-09, No Iterations 2
DILUPBiCG:  Solving for T, Initial residual = 2.86222e-05, Final residual = 2.66065e-11, No Iterations 2
DILUPBiCG:  Solving for T, Initial residual = 5.43705e-07, Final residual = 9.1609e-10, No Iterations 1
DILUPBiCG:  Solving for T, Initial residual = 1.83573e-08, Final residual = 2.03629e-11, No Iterations 1
 T goes from min(T) [0 0 0 0 0 0 0] -0.0969598 to max(T) [0 0 0 0 0 0 0] 0.898705

ExecutionTime = 1227.15 s  ClockTime = 5369 s

Time = 5.9375
Courant Number mean: 0.172799 max: 0.326192
DILUPBiCG:  Solving for T, Initial residual = 0.00468456, Final residual = 4.58558e-09, No Iterations 2
DILUPBiCG:  Solving for T, Initial residual = 2.86637e-05, Final residual = 2.66103e-11, No Iterations 2
DILUPBiCG:  Solving for T, Initial residual = 5.45373e-07, Final residual = 8.92763e-10, No Iterations 1
DILUPBiCG:  Solving for T, Initial residual = 1.844e-08, Final residual = 1.98444e-11, No Iterations 1
 T goes from min(T) [0 0 0 0 0 0 0] -0.0965846 to max(T) [0 0 0 0 0 0 0] 0.898221

ExecutionTime = 1227.86 s  ClockTime = 5370 s

Time = 5.94
Courant Number mean: 0.172727 max: 0.325984
DILUPBiCG:  Solving for T, Initial residual = 0.00469175, Final residual = 4.63239e-09, No Iterations 2
DILUPBiCG:  Solving for T, Initial residual = 2.87066e-05, Final residual = 2.66204e-11, No Iterations 2
DILUPBiCG:  Solving for T, Initial residual = 5.47869e-07, Final residual = 8.69187e-10, No Iterations 1
DILUPBiCG:  Solving for T, Initial residual = 1.84559e-08, Final residual = 1.95059e-11, No Iterations 1
 T goes from min(T) [0 0 0 0 0 0 0] -0.0961612 to max(T) [0 0 0 0 0 0 0] 0.897706

ExecutionTime = 1228.55 s  ClockTime = 5371 s

Time = 5.9425
Courant Number mean: 0.172653 max: 0.32577
DILUPBiCG:  Solving for T, Initial residual = 0.00469999, Final residual = 4.8403e-09, No Iterations 2
DILUPBiCG:  Solving for T, Initial residual = 2.87816e-05, Final residual = 2.66438e-11, No Iterations 2
DILUPBiCG:  Solving for T, Initial residual = 5.50532e-07, Final residual = 8.53551e-10, No Iterations 1
DILUPBiCG:  Solving for T, Initial residual = 1.8474e-08, Final residual = 1.92026e-11, No Iterations 1
 T goes from min(T) [0 0 0 0 0 0 0] -0.0964393 to max(T) [0 0 0 0 0 0 0] 0.89716

ExecutionTime = 1229.26 s  ClockTime = 5371 s

Time = 5.945
Courant Number mean: 0.172578 max: 0.32555
DILUPBiCG:  Solving for T, Initial residual = 0.00470901, Final residual = 5.11509e-09, No Iterations 2
DILUPBiCG:  Solving for T, Initial residual = 2.88738e-05, Final residual = 2.66676e-11, No Iterations 2
DILUPBiCG:  Solving for T, Initial residual = 5.51797e-07, Final residual = 8.38211e-10, No Iterations 1
DILUPBiCG:  Solving for T, Initial residual = 1.84536e-08, Final residual = 1.88836e-11, No Iterations 1
 T goes from min(T) [0 0 0 0 0 0 0] -0.0968556 to max(T) [0 0 0 0 0 0 0] 0.896584

ExecutionTime = 1229.95 s  ClockTime = 5372 s

Time = 5.9475
Courant Number mean: 0.1725 max: 0.325324
DILUPBiCG:  Solving for T, Initial residual = 0.00471655, Final residual = 5.48347e-09, No Iterations 2
DILUPBiCG:  Solving for T, Initial residual = 2.89664e-05, Final residual = 2.67069e-11, No Iterations 2
DILUPBiCG:  Solving for T, Initial residual = 5.52664e-07, Final residual = 8.18024e-10, No Iterations 1
DILUPBiCG:  Solving for T, Initial residual = 1.85063e-08, Final residual = 1.8763e-11, No Iterations 1
 T goes from min(T) [0 0 0 0 0 0 0] -0.0970072 to max(T) [0 0 0 0 0 0 0] 0.896853

ExecutionTime = 1230.61 s  ClockTime = 5373 s

Time = 5.95
Courant Number mean: 0.172434 max: 0.325111
DILUPBiCG:  Solving for T, Initial residual = 0.00472283, Final residual = 5.97835e-09, No Iterations 2
DILUPBiCG:  Solving for T, Initial residual = 2.90359e-05, Final residual = 2.67483e-11, No Iterations 2
DILUPBiCG:  Solving for T, Initial residual = 5.52217e-07, Final residual = 7.92727e-10, No Iterations 1
DILUPBiCG:  Solving for T, Initial residual = 1.85892e-08, Final residual = 1.8865e-11, No Iterations 1
 T goes from min(T) [0 0 0 0 0 0 0] -0.0971567 to max(T) [0 0 0 0 0 0 0] 0.897489

ExecutionTime = 1231.33 s  ClockTime = 5374 s

Time = 5.9525
Courant Number mean: 0.172368 max: 0.324896
DILUPBiCG:  Solving for T, Initial residual = 0.00472878, Final residual = 6.66449e-09, No Iterations 2
DILUPBiCG:  Solving for T, Initial residual = 2.90858e-05, Final residual = 2.67798e-11, No Iterations 2
DILUPBiCG:  Solving for T, Initial residual = 5.52833e-07, Final residual = 7.65377e-10, No Iterations 1
DILUPBiCG:  Solving for T, Initial residual = 1.8671e-08, Final residual = 1.91866e-11, No Iterations 1
 T goes from min(T) [0 0 0 0 0 0 0] -0.0970164 to max(T) [0 0 0 0 0 0 0] 0.898045

ExecutionTime = 1232.02 s  ClockTime = 5374 s

Time = 5.955
Courant Number mean: 0.172301 max: 0.324675
DILUPBiCG:  Solving for T, Initial residual = 0.00473648, Final residual = 7.64896e-09, No Iterations 2
DILUPBiCG:  Solving for T, Initial residual = 2.91061e-05, Final residual = 2.68071e-11, No Iterations 2
DILUPBiCG:  Solving for T, Initial residual = 5.5474e-07, Final residual = 7.37992e-10, No Iterations 1
DILUPBiCG:  Solving for T, Initial residual = 1.87298e-08, Final residual = 1.9834e-11, No Iterations 1
 T goes from min(T) [0 0 0 0 0 0 0] -0.0969682 to max(T) [0 0 0 0 0 0 0] 0.898524

ExecutionTime = 1232.71 s  ClockTime = 5375 s

Time = 5.9575
Courant Number mean: 0.172232 max: 0.324448
DILUPBiCG:  Solving for T, Initial residual = 0.00474517, Final residual = 9.13317e-09, No Iterations 2
DILUPBiCG:  Solving for T, Initial residual = 2.9183e-05, Final residual = 2.68471e-11, No Iterations 2
DILUPBiCG:  Solving for T, Initial residual = 5.57965e-07, Final residual = 7.16076e-10, No Iterations 1
DILUPBiCG:  Solving for T, Initial residual = 1.87546e-08, Final residual = 2.13661e-11, No Iterations 1
 T goes from min(T) [0 0 0 0 0 0 0] -0.0965935 to max(T) [0 0 0 0 0 0 0] 0.898927

ExecutionTime = 1233.4 s  ClockTime = 5376 s

Time = 5.96
Courant Number mean: 0.17216 max: 0.32423
DILUPBiCG:  Solving for T, Initial residual = 0.00475328, Final residual = 8.81652e-12, No Iterations 3
DILUPBiCG:  Solving for T, Initial residual = 2.92817e-05, Final residual = 2.68796e-11, No Iterations 2
DILUPBiCG:  Solving for T, Initial residual = 5.60124e-07, Final residual = 7.35023e-10, No Iterations 1
DILUPBiCG:  Solving for T, Initial residual = 1.86941e-08, Final residual = 1.46713e-11, No Iterations 1
 T goes from min(T) [0 0 0 0 0 0 0] -0.0963982 to max(T) [0 0 0 0 0 0 0] 0.899256

ExecutionTime = 1234.08 s  ClockTime = 5376 s

Time = 5.9625
Courant Number mean: 0.172086 max: 0.324013
DILUPBiCG:  Solving for T, Initial residual = 0.00476103, Final residual = 9.92012e-12, No Iterations 3
DILUPBiCG:  Solving for T, Initial residual = 2.93731e-05, Final residual = 2.69305e-11, No Iterations 2
DILUPBiCG:  Solving for T, Initial residual = 5.61733e-07, Final residual = 7.19308e-10, No Iterations 1
DILUPBiCG:  Solving for T, Initial residual = 1.87072e-08, Final residual = 1.43962e-11, No Iterations 1
 T goes from min(T) [0 0 0 0 0 0 0] -0.0959897 to max(T) [0 0 0 0 0 0 0] 0.899515

ExecutionTime = 1234.68 s  ClockTime = 5377 s

Time = 5.965
Courant Number mean: 0.17201 max: 0.323791
DILUPBiCG:  Solving for T, Initial residual = 0.00476768, Final residual = 1.18217e-11, No Iterations 3
DILUPBiCG:  Solving for T, Initial residual = 2.94472e-05, Final residual = 2.6976e-11, No Iterations 2
DILUPBiCG:  Solving for T, Initial residual = 5.61985e-07, Final residual = 7.01482e-10, No Iterations 1
DILUPBiCG:  Solving for T, Initial residual = 1.87714e-08, Final residual = 1.41629e-11, No Iterations 1
 T goes from min(T) [0 0 0 0 0 0 0] -0.0963733 to max(T) [0 0 0 0 0 0 0] 0.899705

ExecutionTime = 1235.35 s  ClockTime = 5378 s

Time = 5.9675
Courant Number mean: 0.171933 max: 0.323563
DILUPBiCG:  Solving for T, Initial residual = 0.00477413, Final residual = 1.55679e-11, No Iterations 3
DILUPBiCG:  Solving for T, Initial residual = 2.95021e-05, Final residual = 2.70204e-11, No Iterations 2
DILUPBiCG:  Solving for T, Initial residual = 5.6125e-07, Final residual = 6.89731e-10, No Iterations 1
DILUPBiCG:  Solving for T, Initial residual = 1.88504e-08, Final residual = 1.39969e-11, No Iterations 1
 T goes from min(T) [0 0 0 0 0 0 0] -0.0967155 to max(T) [0 0 0 0 0 0 0] 0.899827

ExecutionTime = 1235.95 s  ClockTime = 5378 s

Time = 5.97
Courant Number mean: 0.171861 max: 0.323341
DILUPBiCG:  Solving for T, Initial residual = 0.00478185, Final residual = 2.53424e-11, No Iterations 3
DILUPBiCG:  Solving for T, Initial residual = 2.95255e-05, Final residual = 2.70534e-11, No Iterations 2
DILUPBiCG:  Solving for T, Initial residual = 5.61582e-07, Final residual = 6.77055e-10, No Iterations 1
DILUPBiCG:  Solving for T, Initial residual = 1.89402e-08, Final residual = 1.37595e-11, No Iterations 1
 T goes from min(T) [0 0 0 0 0 0 0] -0.0968351 to max(T) [0 0 0 0 0 0 0] 0.899885

ExecutionTime = 1236.44 s  ClockTime = 5379 s

Time = 5.9725
Courant Number mean: 0.171795 max: 0.323123
DILUPBiCG:  Solving for T, Initial residual = 0.00478944, Final residual = 1.00362e-10, No Iterations 3
DILUPBiCG:  Solving for T, Initial residual = 2.95806e-05, Final residual = 2.71263e-11, No Iterations 2
DILUPBiCG:  Solving for T, Initial residual = 5.64835e-07, Final residual = 6.63293e-10, No Iterations 1
DILUPBiCG:  Solving for T, Initial residual = 1.89542e-08, Final residual = 1.33507e-11, No Iterations 1
 T goes from min(T) [0 0 0 0 0 0 0] -0.0969269 to max(T) [0 0 0 0 0 0 0] 0.899879

ExecutionTime = 1236.95 s  ClockTime = 5379 s

Time = 5.975
Courant Number mean: 0.171727 max: 0.3229
DILUPBiCG:  Solving for T, Initial residual = 0.00479704, Final residual = 4.67763e-11, No Iterations 3
DILUPBiCG:  Solving for T, Initial residual = 2.96787e-05, Final residual = 2.73087e-11, No Iterations 2
DILUPBiCG:  Solving for T, Initial residual = 5.67399e-07, Final residual = 6.45614e-10, No Iterations 1
DILUPBiCG:  Solving for T, Initial residual = 1.89487e-08, Final residual = 1.32026e-11, No Iterations 1
 T goes from min(T) [0 0 0 0 0 0 0] -0.0968336 to max(T) [0 0 0 0 0 0 0] 0.899813

ExecutionTime = 1237.46 s  ClockTime = 5380 s

Time = 5.9775
Courant Number mean: 0.171657 max: 0.322671
DILUPBiCG:  Solving for T, Initial residual = 0.00480453, Final residual = 2.47495e-11, No Iterations 3
DILUPBiCG:  Solving for T, Initial residual = 2.97731e-05, Final residual = 2.7546e-11, No Iterations 2
DILUPBiCG:  Solving for T, Initial residual = 5.69748e-07, Final residual = 6.29503e-10, No Iterations 1
DILUPBiCG:  Solving for T, Initial residual = 1.89448e-08, Final residual = 1.27717e-11, No Iterations 1
 T goes from min(T) [0 0 0 0 0 0 0] -0.0967314 to max(T) [0 0 0 0 0 0 0] 0.899688

ExecutionTime = 1237.96 s  ClockTime = 5380 s

Time = 5.98
Courant Number mean: 0.171585 max: 0.322443
DILUPBiCG:  Solving for T, Initial residual = 0.00481198, Final residual = 1.9349e-11, No Iterations 3
DILUPBiCG:  Solving for T, Initial residual = 2.98536e-05, Final residual = 2.77859e-11, No Iterations 2
DILUPBiCG:  Solving for T, Initial residual = 5.71043e-07, Final residual = 6.20233e-10, No Iterations 1
DILUPBiCG:  Solving for T, Initial residual = 1.8998e-08, Final residual = 1.23821e-11, No Iterations 1
 T goes from min(T) [0 0 0 0 0 0 0] -0.0964562 to max(T) [0 0 0 0 0 0 0] 0.899506

ExecutionTime = 1238.48 s  ClockTime = 5381 s

Time = 5.9825
Courant Number mean: 0.171512 max: 0.322224
DILUPBiCG:  Solving for T, Initial residual = 0.00481986, Final residual = 1.69926e-11, No Iterations 3
DILUPBiCG:  Solving for T, Initial residual = 2.99155e-05, Final residual = 2.80355e-11, No Iterations 2
DILUPBiCG:  Solving for T, Initial residual = 5.70381e-07, Final residual = 6.07978e-10, No Iterations 1
DILUPBiCG:  Solving for T, Initial residual = 1.90577e-08, Final residual = 1.19528e-11, No Iterations 1
 T goes from min(T) [0 0 0 0 0 0 0] -0.096221 to max(T) [0 0 0 0 0 0 0] 0.899268

ExecutionTime = 1239 s  ClockTime = 5381 s

Time = 5.985
Courant Number mean: 0.171436 max: 0.322
DILUPBiCG:  Solving for T, Initial residual = 0.00482811, Final residual = 1.58011e-11, No Iterations 3
DILUPBiCG:  Solving for T, Initial residual = 2.99558e-05, Final residual = 2.82889e-11, No Iterations 2
DILUPBiCG:  Solving for T, Initial residual = 5.69905e-07, Final residual = 5.9666e-10, No Iterations 1
DILUPBiCG:  Solving for T, Initial residual = 1.91256e-08, Final residual = 1.17489e-11, No Iterations 1
 T goes from min(T) [0 0 0 0 0 0 0] -0.095867 to max(T) [0 0 0 0 0 0 0] 0.899044

ExecutionTime = 1239.53 s  ClockTime = 5382 s

Time = 5.9875
Courant Number mean: 0.171358 max: 0.32177
DILUPBiCG:  Solving for T, Initial residual = 0.0048357, Final residual = 1.53145e-11, No Iterations 3
DILUPBiCG:  Solving for T, Initial residual = 3.00061e-05, Final residual = 2.85521e-11, No Iterations 2
DILUPBiCG:  Solving for T, Initial residual = 5.71132e-07, Final residual = 5.83839e-10, No Iterations 1
DILUPBiCG:  Solving for T, Initial residual = 1.91675e-08, Final residual = 1.171e-11, No Iterations 1
 T goes from min(T) [0 0 0 0 0 0 0] -0.0962892 to max(T) [0 0 0 0 0 0 0] 0.898778

ExecutionTime = 1240.04 s  ClockTime = 5382 s

Time = 5.99
Courant Number mean: 0.17128 max: 0.321538
DILUPBiCG:  Solving for T, Initial residual = 0.00484281, Final residual = 1.50342e-11, No Iterations 3
DILUPBiCG:  Solving for T, Initial residual = 3.00827e-05, Final residual = 2.88347e-11, No Iterations 2
DILUPBiCG:  Solving for T, Initial residual = 5.73967e-07, Final residual = 5.69875e-10, No Iterations 1
DILUPBiCG:  Solving for T, Initial residual = 1.91728e-08, Final residual = 1.16227e-11, No Iterations 1
 T goes from min(T) [0 0 0 0 0 0 0] -0.0964784 to max(T) [0 0 0 0 0 0 0] 0.898465

ExecutionTime = 1240.59 s  ClockTime = 5383 s

Time = 5.9925
Courant Number mean: 0.171214 max: 0.321318
DILUPBiCG:  Solving for T, Initial residual = 0.00485011, Final residual = 1.48729e-11, No Iterations 3
DILUPBiCG:  Solving for T, Initial residual = 3.0168e-05, Final residual = 2.91454e-11, No Iterations 2
DILUPBiCG:  Solving for T, Initial residual = 5.76318e-07, Final residual = 5.55721e-10, No Iterations 1
DILUPBiCG:  Solving for T, Initial residual = 1.91699e-08, Final residual = 1.14634e-11, No Iterations 1
 T goes from min(T) [0 0 0 0 0 0 0] -0.0966807 to max(T) [0 0 0 0 0 0 0] 0.898108

ExecutionTime = 1241.1 s  ClockTime = 5383 s

Time = 5.995
Courant Number mean: 0.171146 max: 0.321092
DILUPBiCG:  Solving for T, Initial residual = 0.00485794, Final residual = 1.4801e-11, No Iterations 3
DILUPBiCG:  Solving for T, Initial residual = 3.0251e-05, Final residual = 2.94716e-11, No Iterations 2
DILUPBiCG:  Solving for T, Initial residual = 5.78938e-07, Final residual = 5.47061e-10, No Iterations 1
DILUPBiCG:  Solving for T, Initial residual = 1.92085e-08, Final residual = 1.12498e-11, No Iterations 1
 T goes from min(T) [0 0 0 0 0 0 0] -0.0966593 to max(T) [0 0 0 0 0 0 0] 0.897708

ExecutionTime = 1241.61 s  ClockTime = 5384 s

Time = 5.9975
Courant Number mean: 0.171077 max: 0.320861
DILUPBiCG:  Solving for T, Initial residual = 0.00486583, Final residual = 1.47922e-11, No Iterations 3
DILUPBiCG:  Solving for T, Initial residual = 3.03202e-05, Final residual = 2.97994e-11, No Iterations 2
DILUPBiCG:  Solving for T, Initial residual = 5.79316e-07, Final residual = 5.35928e-10, No Iterations 1
DILUPBiCG:  Solving for T, Initial residual = 1.92611e-08, Final residual = 1.10229e-11, No Iterations 1
 T goes from min(T) [0 0 0 0 0 0 0] -0.0966762 to max(T) [0 0 0 0 0 0 0] 0.897267

ExecutionTime = 1242.29 s  ClockTime = 5385 s

Time = 6
Courant Number mean: 0.171005 max: 0.320624
DILUPBiCG:  Solving for T, Initial residual = 0.00487416, Final residual = 1.48328e-11, No Iterations 3
DILUPBiCG:  Solving for T, Initial residual = 3.03739e-05, Final residual = 3.01322e-11, No Iterations 2
DILUPBiCG:  Solving for T, Initial residual = 5.78698e-07, Final residual = 5.24537e-10, No Iterations 1
DILUPBiCG:  Solving for T, Initial residual = 1.9308e-08, Final residual = 1.07605e-11, No Iterations 1
 T goes from min(T) [0 0 0 0 0 0 0] -0.0965027 to max(T) [0 0 0 0 0 0 0] 0.896785

ExecutionTime = 1242.99 s  ClockTime = 5385 s

End

