/*---------------------------------------------------------------------------*\
| =========                 |                                                 |
| \\      /  F ield         | OpenFOAM: The Open Source CFD Toolbox           |
|  \\    /   O peration     | Version:  dev                                   |
|   \\  /    A nd           | Web:      www.OpenFOAM.org                      |
|    \\/     M anipulation  |                                                 |
\*---------------------------------------------------------------------------*/
Build  : dev-90f39e0d894d
Exec   : scalarDeformationWithGhosts implicit -case nonOrthogW/120x60/c1_implicit
Date   : May 23 2017
Time   : 20:31:15
Host   : "sws02hw.private.rdg.ac.uk"
PID    : 22908
Case   : nonOrthogW/120x60/c1_implicit
nProcs : 1
sigFpe : Enabling floating point exception trapping (FOAM_SIGFPE).
fileModificationChecking : Monitoring run-time modified files using timeStampMaster (fileModificationSkew 10)
allowSystemOperations : Allowing user-supplied system call operations

// * * * * * * * * * * * * * * * * * * * * * * * * * * * * * * * * * * * * * //
Create time

Create mesh for time = 0

Reading field T

Reading fields phi (compulsory), U and Uf (optional)

Calculating owner stencils
Calculating neighbour stencils

Calculating scalar transport

Courant Number mean: 0.466051 max: 0.965781
Time = 0.01
Courant Number mean: 0.466026 max: 0.968605
DILUPBiCG:  Solving for T, Initial residual = 0.0134091, Final residual = 1.38932e-10, No Iterations 4
DILUPBiCG:  Solving for T, Initial residual = 0.000140265, Final residual = 2.47499e-10, No Iterations 3
DILUPBiCG:  Solving for T, Initial residual = 2.10057e-06, Final residual = 3.4406e-10, No Iterations 2
DILUPBiCG:  Solving for T, Initial residual = 8.31477e-08, Final residual = 1.10715e-09, No Iterations 1
 T goes from min(T) [0 0 0 0 0 0 0] 1.06384e-20 to max(T) [0 0 0 0 0 0 0] 0.953328

ExecutionTime = 2.07 s  ClockTime = 23 s

Time = 0.02
Courant Number mean: 0.465939 max: 0.971176
DILUPBiCG:  Solving for T, Initial residual = 0.0133979, Final residual = 1.31911e-10, No Iterations 4
DILUPBiCG:  Solving for T, Initial residual = 0.000140575, Final residual = 2.37015e-10, No Iterations 3
DILUPBiCG:  Solving for T, Initial residual = 2.1124e-06, Final residual = 3.74806e-10, No Iterations 2
DILUPBiCG:  Solving for T, Initial residual = 8.39108e-08, Final residual = 1.05469e-09, No Iterations 1
 T goes from min(T) [0 0 0 0 0 0 0] 1.03279e-20 to max(T) [0 0 0 0 0 0 0] 0.951179

ExecutionTime = 2.23 s  ClockTime = 26 s

Time = 0.03
Courant Number mean: 0.465804 max: 0.97349
DILUPBiCG:  Solving for T, Initial residual = 0.0134081, Final residual = 1.2672e-10, No Iterations 4
DILUPBiCG:  Solving for T, Initial residual = 0.000140945, Final residual = 2.25423e-10, No Iterations 3
DILUPBiCG:  Solving for T, Initial residual = 2.13787e-06, Final residual = 4.21576e-10, No Iterations 2
DILUPBiCG:  Solving for T, Initial residual = 8.61575e-08, Final residual = 1.01505e-09, No Iterations 1
 T goes from min(T) [0 0 0 0 0 0 0] 1.27004e-20 to max(T) [0 0 0 0 0 0 0] 0.953321

ExecutionTime = 2.37 s  ClockTime = 28 s

Time = 0.04
Courant Number mean: 0.465613 max: 0.975548
DILUPBiCG:  Solving for T, Initial residual = 0.0134139, Final residual = 1.24394e-10, No Iterations 4
DILUPBiCG:  Solving for T, Initial residual = 0.000141586, Final residual = 2.13494e-10, No Iterations 3
DILUPBiCG:  Solving for T, Initial residual = 2.17002e-06, Final residual = 4.90351e-10, No Iterations 2
DILUPBiCG:  Solving for T, Initial residual = 8.95138e-08, Final residual = 9.79651e-10, No Iterations 1
 T goes from min(T) [0 0 0 0 0 0 0] 1.41105e-20 to max(T) [0 0 0 0 0 0 0] 0.952064

ExecutionTime = 2.51 s  ClockTime = 31 s

Time = 0.05
Courant Number mean: 0.465366 max: 0.977959
DILUPBiCG:  Solving for T, Initial residual = 0.0134322, Final residual = 1.27441e-10, No Iterations 4
DILUPBiCG:  Solving for T, Initial residual = 0.000142324, Final residual = 2.01792e-10, No Iterations 3
DILUPBiCG:  Solving for T, Initial residual = 2.21107e-06, Final residual = 5.93172e-10, No Iterations 2
DILUPBiCG:  Solving for T, Initial residual = 9.42467e-08, Final residual = 9.58614e-10, No Iterations 1
 T goes from min(T) [0 0 0 0 0 0 0] 1.30921e-20 to max(T) [0 0 0 0 0 0 0] 0.952963

ExecutionTime = 2.67 s  ClockTime = 34 s

Time = 0.06
Courant Number mean: 0.465065 max: 0.98035
DILUPBiCG:  Solving for T, Initial residual = 0.0134344, Final residual = 1.37685e-10, No Iterations 4
DILUPBiCG:  Solving for T, Initial residual = 0.000143109, Final residual = 1.90517e-10, No Iterations 3
DILUPBiCG:  Solving for T, Initial residual = 2.27191e-06, Final residual = 7.50486e-10, No Iterations 2
DILUPBiCG:  Solving for T, Initial residual = 1.00236e-07, Final residual = 9.50569e-10, No Iterations 1
 T goes from min(T) [0 0 0 0 0 0 0] 1.52579e-20 to max(T) [0 0 0 0 0 0 0] 0.951502

ExecutionTime = 2.81 s  ClockTime = 37 s

Time = 0.07
Courant Number mean: 0.464713 max: 0.982873
DILUPBiCG:  Solving for T, Initial residual = 0.0134596, Final residual = 1.65496e-10, No Iterations 4
DILUPBiCG:  Solving for T, Initial residual = 0.000144096, Final residual = 1.80082e-10, No Iterations 3
DILUPBiCG:  Solving for T, Initial residual = 2.33919e-06, Final residual = 9.99933e-10, No Iterations 2
DILUPBiCG:  Solving for T, Initial residual = 1.0776e-07, Final residual = 9.53904e-10, No Iterations 1
 T goes from min(T) [0 0 0 0 0 0 0] 1.83138e-20 to max(T) [0 0 0 0 0 0 0] 0.952881

ExecutionTime = 2.95 s  ClockTime = 41 s

Time = 0.08
Courant Number mean: 0.464306 max: 0.985137
DILUPBiCG:  Solving for T, Initial residual = 0.0134675, Final residual = 2.53293e-10, No Iterations 4
DILUPBiCG:  Solving for T, Initial residual = 0.000145174, Final residual = 1.70389e-10, No Iterations 3
DILUPBiCG:  Solving for T, Initial residual = 2.41376e-06, Final residual = 1.43819e-09, No Iterations 2
DILUPBiCG:  Solving for T, Initial residual = 1.16523e-07, Final residual = 9.67249e-10, No Iterations 1
 T goes from min(T) [0 0 0 0 0 0 0] 1.62321e-20 to max(T) [0 0 0 0 0 0 0] 0.951999

ExecutionTime = 3.11 s  ClockTime = 44 s

Time = 0.09
Courant Number mean: 0.463841 max: 0.987388
DILUPBiCG:  Solving for T, Initial residual = 0.0134882, Final residual = 9.39953e-10, No Iterations 4
DILUPBiCG:  Solving for T, Initial residual = 0.000146462, Final residual = 1.61952e-10, No Iterations 3
DILUPBiCG:  Solving for T, Initial residual = 2.50192e-06, Final residual = 2.38299e-09, No Iterations 2
DILUPBiCG:  Solving for T, Initial residual = 1.26426e-07, Final residual = 9.92931e-10, No Iterations 1
 T goes from min(T) [0 0 0 0 0 0 0] 1.81411e-20 to max(T) [0 0 0 0 0 0 0] 0.952816

ExecutionTime = 3.25 s  ClockTime = 47 s

Time = 0.1
Courant Number mean: 0.463323 max: 0.989875
DILUPBiCG:  Solving for T, Initial residual = 0.0135048, Final residual = 8.95197e-09, No Iterations 3
DILUPBiCG:  Solving for T, Initial residual = 0.000147891, Final residual = 1.54413e-10, No Iterations 3
DILUPBiCG:  Solving for T, Initial residual = 2.60541e-06, Final residual = 5.78093e-09, No Iterations 2
DILUPBiCG:  Solving for T, Initial residual = 1.3769e-07, Final residual = 1.03671e-09, No Iterations 1
 T goes from min(T) [0 0 0 0 0 0 0] 2.41416e-20 to max(T) [0 0 0 0 0 0 0] 0.952412

ExecutionTime = 3.39 s  ClockTime = 50 s

Time = 0.11
Courant Number mean: 0.462753 max: 0.992099
DILUPBiCG:  Solving for T, Initial residual = 0.013524, Final residual = 7.74022e-09, No Iterations 3
DILUPBiCG:  Solving for T, Initial residual = 0.00014941, Final residual = 1.47733e-10, No Iterations 3
DILUPBiCG:  Solving for T, Initial residual = 2.71534e-06, Final residual = 2.88245e-12, No Iterations 3
DILUPBiCG:  Solving for T, Initial residual = 1.52324e-07, Final residual = 1.08663e-09, No Iterations 1
 T goes from min(T) [0 0 0 0 0 0 0] 2.23847e-20 to max(T) [0 0 0 0 0 0 0] 0.951525

ExecutionTime = 3.53 s  ClockTime = 53 s

Time = 0.12
Courant Number mean: 0.462129 max: 0.994059
DILUPBiCG:  Solving for T, Initial residual = 0.0135408, Final residual = 7.05737e-09, No Iterations 3
DILUPBiCG:  Solving for T, Initial residual = 0.000151242, Final residual = 1.41959e-10, No Iterations 3
DILUPBiCG:  Solving for T, Initial residual = 2.83879e-06, Final residual = 4.23155e-09, No Iterations 2
DILUPBiCG:  Solving for T, Initial residual = 1.68376e-07, Final residual = 1.15227e-09, No Iterations 1
 T goes from min(T) [0 0 0 0 0 0 0] 2.98265e-20 to max(T) [0 0 0 0 0 0 0] 0.953097

ExecutionTime = 3.66 s  ClockTime = 56 s

Time = 0.13
Courant Number mean: 0.461448 max: 0.995753
DILUPBiCG:  Solving for T, Initial residual = 0.0135572, Final residual = 6.59303e-09, No Iterations 3
DILUPBiCG:  Solving for T, Initial residual = 0.000153024, Final residual = 1.36805e-10, No Iterations 3
DILUPBiCG:  Solving for T, Initial residual = 2.98134e-06, Final residual = 2.47428e-09, No Iterations 2
DILUPBiCG:  Solving for T, Initial residual = 1.85134e-07, Final residual = 1.23528e-09, No Iterations 1
 T goes from min(T) [0 0 0 0 0 0 0] -7.98435e-18 to max(T) [0 0 0 0 0 0 0] 0.953567

ExecutionTime = 3.8 s  ClockTime = 59 s

Time = 0.14
Courant Number mean: 0.460714 max: 0.99765
DILUPBiCG:  Solving for T, Initial residual = 0.0135777, Final residual = 6.25559e-09, No Iterations 3
DILUPBiCG:  Solving for T, Initial residual = 0.000154906, Final residual = 1.32391e-10, No Iterations 3
DILUPBiCG:  Solving for T, Initial residual = 3.13498e-06, Final residual = 1.81276e-09, No Iterations 2
DILUPBiCG:  Solving for T, Initial residual = 2.03478e-07, Final residual = 1.32472e-09, No Iterations 1
 T goes from min(T) [0 0 0 0 0 0 0] -1.29356e-17 to max(T) [0 0 0 0 0 0 0] 0.953152

ExecutionTime = 3.94 s  ClockTime = 62 s

Time = 0.15
Courant Number mean: 0.459935 max: 1.00008
DILUPBiCG:  Solving for T, Initial residual = 0.0135937, Final residual = 6.02228e-09, No Iterations 3
DILUPBiCG:  Solving for T, Initial residual = 0.000157274, Final residual = 1.28476e-10, No Iterations 3
DILUPBiCG:  Solving for T, Initial residual = 3.29501e-06, Final residual = 1.46675e-09, No Iterations 2
DILUPBiCG:  Solving for T, Initial residual = 2.23244e-07, Final residual = 1.41999e-09, No Iterations 1
 T goes from min(T) [0 0 0 0 0 0 0] -5.26514e-16 to max(T) [0 0 0 0 0 0 0] 0.951531

ExecutionTime = 4.08 s  ClockTime = 65 s

Time = 0.16
Courant Number mean: 0.459096 max: 1.00225
DILUPBiCG:  Solving for T, Initial residual = 0.0136149, Final residual = 5.85838e-09, No Iterations 3
DILUPBiCG:  Solving for T, Initial residual = 0.000159423, Final residual = 1.24938e-10, No Iterations 3
DILUPBiCG:  Solving for T, Initial residual = 3.4631e-06, Final residual = 1.25465e-09, No Iterations 2
DILUPBiCG:  Solving for T, Initial residual = 2.44753e-07, Final residual = 1.52454e-09, No Iterations 1
 T goes from min(T) [0 0 0 0 0 0 0] -2.02437e-15 to max(T) [0 0 0 0 0 0 0] 0.951388

ExecutionTime = 4.21 s  ClockTime = 68 s

Time = 0.17
Courant Number mean: 0.458221 max: 1.00416
DILUPBiCG:  Solving for T, Initial residual = 0.013638, Final residual = 5.75069e-09, No Iterations 3
DILUPBiCG:  Solving for T, Initial residual = 0.000161643, Final residual = 1.21774e-10, No Iterations 3
DILUPBiCG:  Solving for T, Initial residual = 3.63938e-06, Final residual = 1.11703e-09, No Iterations 2
DILUPBiCG:  Solving for T, Initial residual = 2.68621e-07, Final residual = 1.63273e-09, No Iterations 1
 T goes from min(T) [0 0 0 0 0 0 0] -1.18379e-14 to max(T) [0 0 0 0 0 0 0] 0.953777

ExecutionTime = 4.35 s  ClockTime = 70 s

Time = 0.18
Courant Number mean: 0.457321 max: 1.0058
DILUPBiCG:  Solving for T, Initial residual = 0.0136494, Final residual = 5.69576e-09, No Iterations 3
DILUPBiCG:  Solving for T, Initial residual = 0.000164236, Final residual = 1.18668e-10, No Iterations 3
DILUPBiCG:  Solving for T, Initial residual = 3.83709e-06, Final residual = 1.02629e-09, No Iterations 2
DILUPBiCG:  Solving for T, Initial residual = 2.93244e-07, Final residual = 1.74444e-09, No Iterations 1
 T goes from min(T) [0 0 0 0 0 0 0] -4.41497e-14 to max(T) [0 0 0 0 0 0 0] 0.953483

ExecutionTime = 4.49 s  ClockTime = 73 s

Time = 0.19
Courant Number mean: 0.45638 max: 1.00716
DILUPBiCG:  Solving for T, Initial residual = 0.0136785, Final residual = 5.69058e-09, No Iterations 3
DILUPBiCG:  Solving for T, Initial residual = 0.000166745, Final residual = 1.15851e-10, No Iterations 3
DILUPBiCG:  Solving for T, Initial residual = 4.04307e-06, Final residual = 9.59284e-10, No Iterations 2
DILUPBiCG:  Solving for T, Initial residual = 3.17626e-07, Final residual = 1.85468e-09, No Iterations 1
 T goes from min(T) [0 0 0 0 0 0 0] -8.00494e-14 to max(T) [0 0 0 0 0 0 0] 0.950857

ExecutionTime = 4.62 s  ClockTime = 76 s

Time = 0.2
Courant Number mean: 0.455401 max: 1.00852
DILUPBiCG:  Solving for T, Initial residual = 0.0136925, Final residual = 5.72792e-09, No Iterations 3
DILUPBiCG:  Solving for T, Initial residual = 0.000169616, Final residual = 1.13656e-10, No Iterations 3
DILUPBiCG:  Solving for T, Initial residual = 4.25635e-06, Final residual = 9.06957e-10, No Iterations 2
DILUPBiCG:  Solving for T, Initial residual = 3.41681e-07, Final residual = 1.97328e-09, No Iterations 1
 T goes from min(T) [0 0 0 0 0 0 0] -1.4587e-13 to max(T) [0 0 0 0 0 0 0] 0.951724

ExecutionTime = 4.76 s  ClockTime = 79 s

Time = 0.21
Courant Number mean: 0.454375 max: 1.01062
DILUPBiCG:  Solving for T, Initial residual = 0.0137126, Final residual = 5.79504e-09, No Iterations 3
DILUPBiCG:  Solving for T, Initial residual = 0.00017255, Final residual = 1.11666e-10, No Iterations 3
DILUPBiCG:  Solving for T, Initial residual = 4.47686e-06, Final residual = 8.65481e-10, No Iterations 2
DILUPBiCG:  Solving for T, Initial residual = 3.68684e-07, Final residual = 2.08987e-09, No Iterations 1
 T goes from min(T) [0 0 0 0 0 0 0] -3.41499e-13 to max(T) [0 0 0 0 0 0 0] 0.951704

ExecutionTime = 4.9 s  ClockTime = 82 s

Time = 0.22
Courant Number mean: 0.453344 max: 1.01245
DILUPBiCG:  Solving for T, Initial residual = 0.0137367, Final residual = 5.87938e-09, No Iterations 3
DILUPBiCG:  Solving for T, Initial residual = 0.000175344, Final residual = 1.13779e-10, No Iterations 3
DILUPBiCG:  Solving for T, Initial residual = 4.70643e-06, Final residual = 8.33462e-10, No Iterations 2
DILUPBiCG:  Solving for T, Initial residual = 3.9541e-07, Final residual = 2.19812e-09, No Iterations 1
 T goes from min(T) [0 0 0 0 0 0 0] -4.40865e-13 to max(T) [0 0 0 0 0 0 0] 0.952728

ExecutionTime = 5.03 s  ClockTime = 85 s

Time = 0.23
Courant Number mean: 0.45229 max: 1.01401
DILUPBiCG:  Solving for T, Initial residual = 0.0137507, Final residual = 6.00115e-09, No Iterations 3
DILUPBiCG:  Solving for T, Initial residual = 0.000178435, Final residual = 1.16929e-10, No Iterations 3
DILUPBiCG:  Solving for T, Initial residual = 4.94845e-06, Final residual = 8.09019e-10, No Iterations 2
DILUPBiCG:  Solving for T, Initial residual = 4.22388e-07, Final residual = 2.30721e-09, No Iterations 1
 T goes from min(T) [0 0 0 0 0 0 0] -4.75858e-13 to max(T) [0 0 0 0 0 0 0] 0.953265

ExecutionTime = 5.16 s  ClockTime = 88 s

Time = 0.24
Courant Number mean: 0.451196 max: 1.0153
DILUPBiCG:  Solving for T, Initial residual = 0.0137743, Final residual = 6.16909e-09, No Iterations 3
DILUPBiCG:  Solving for T, Initial residual = 0.000181874, Final residual = 1.20271e-10, No Iterations 3
DILUPBiCG:  Solving for T, Initial residual = 5.17732e-06, Final residual = 7.88598e-10, No Iterations 2
DILUPBiCG:  Solving for T, Initial residual = 4.48386e-07, Final residual = 2.40595e-09, No Iterations 1
 T goes from min(T) [0 0 0 0 0 0 0] -6.47165e-13 to max(T) [0 0 0 0 0 0 0] 0.953215

ExecutionTime = 5.29 s  ClockTime = 90 s

Time = 0.25
Courant Number mean: 0.450062 max: 1.01663
DILUPBiCG:  Solving for T, Initial residual = 0.013797, Final residual = 6.37865e-09, No Iterations 3
DILUPBiCG:  Solving for T, Initial residual = 0.000185159, Final residual = 1.2359e-10, No Iterations 3
DILUPBiCG:  Solving for T, Initial residual = 5.41915e-06, Final residual = 7.71831e-10, No Iterations 2
DILUPBiCG:  Solving for T, Initial residual = 4.7299e-07, Final residual = 2.51315e-09, No Iterations 1
 T goes from min(T) [0 0 0 0 0 0 0] -8.09128e-13 to max(T) [0 0 0 0 0 0 0] 0.951055

ExecutionTime = 5.42 s  ClockTime = 93 s

Time = 0.26
Courant Number mean: 0.448914 max: 1.01819
DILUPBiCG:  Solving for T, Initial residual = 0.013815, Final residual = 6.63114e-09, No Iterations 3
DILUPBiCG:  Solving for T, Initial residual = 0.000188647, Final residual = 1.27359e-10, No Iterations 3
DILUPBiCG:  Solving for T, Initial residual = 5.66748e-06, Final residual = 7.56571e-10, No Iterations 2
DILUPBiCG:  Solving for T, Initial residual = 4.97875e-07, Final residual = 2.64216e-09, No Iterations 1
 T goes from min(T) [0 0 0 0 0 0 0] -1.16078e-12 to max(T) [0 0 0 0 0 0 0] 0.950968

ExecutionTime = 5.56 s  ClockTime = 96 s

Time = 0.27
Courant Number mean: 0.447755 max: 1.01946
DILUPBiCG:  Solving for T, Initial residual = 0.0138327, Final residual = 6.94385e-09, No Iterations 3
DILUPBiCG:  Solving for T, Initial residual = 0.000192436, Final residual = 1.31704e-10, No Iterations 3
DILUPBiCG:  Solving for T, Initial residual = 5.90687e-06, Final residual = 7.42896e-10, No Iterations 2
DILUPBiCG:  Solving for T, Initial residual = 5.22234e-07, Final residual = 2.78875e-09, No Iterations 1
 T goes from min(T) [0 0 0 0 0 0 0] -2.3653e-12 to max(T) [0 0 0 0 0 0 0] 0.95031

ExecutionTime = 5.7 s  ClockTime = 99 s

Time = 0.28
Courant Number mean: 0.44656 max: 1.02047
DILUPBiCG:  Solving for T, Initial residual = 0.0138637, Final residual = 7.32767e-09, No Iterations 3
DILUPBiCG:  Solving for T, Initial residual = 0.000195808, Final residual = 1.37185e-10, No Iterations 3
DILUPBiCG:  Solving for T, Initial residual = 6.14472e-06, Final residual = 7.32524e-10, No Iterations 2
DILUPBiCG:  Solving for T, Initial residual = 5.44322e-07, Final residual = 2.95402e-09, No Iterations 1
 T goes from min(T) [0 0 0 0 0 0 0] -2.58156e-12 to max(T) [0 0 0 0 0 0 0] 0.951565

ExecutionTime = 5.83 s  ClockTime = 102 s

Time = 0.29
Courant Number mean: 0.445329 max: 1.02155
DILUPBiCG:  Solving for T, Initial residual = 0.0138821, Final residual = 7.80762e-09, No Iterations 3
DILUPBiCG:  Solving for T, Initial residual = 0.000199132, Final residual = 1.43651e-10, No Iterations 3
DILUPBiCG:  Solving for T, Initial residual = 6.37656e-06, Final residual = 7.19692e-10, No Iterations 2
DILUPBiCG:  Solving for T, Initial residual = 5.62919e-07, Final residual = 3.12803e-09, No Iterations 1
 T goes from min(T) [0 0 0 0 0 0 0] -2.1036e-12 to max(T) [0 0 0 0 0 0 0] 0.952028

ExecutionTime = 5.96 s  ClockTime = 105 s

Time = 0.3
Courant Number mean: 0.444076 max: 1.02311
DILUPBiCG:  Solving for T, Initial residual = 0.0139002, Final residual = 8.4493e-09, No Iterations 3
DILUPBiCG:  Solving for T, Initial residual = 0.000203267, Final residual = 1.51975e-10, No Iterations 3
DILUPBiCG:  Solving for T, Initial residual = 6.59467e-06, Final residual = 6.88926e-10, No Iterations 2
DILUPBiCG:  Solving for T, Initial residual = 5.81592e-07, Final residual = 3.3328e-09, No Iterations 1
 T goes from min(T) [0 0 0 0 0 0 0] -6.20722e-12 to max(T) [0 0 0 0 0 0 0] 0.95314

ExecutionTime = 6.1 s  ClockTime = 107 s

Time = 0.31
Courant Number mean: 0.442829 max: 1.02458
DILUPBiCG:  Solving for T, Initial residual = 0.0139271, Final residual = 9.40636e-09, No Iterations 3
DILUPBiCG:  Solving for T, Initial residual = 0.000207201, Final residual = 1.61995e-10, No Iterations 3
DILUPBiCG:  Solving for T, Initial residual = 6.83793e-06, Final residual = 5.84801e-10, No Iterations 2
DILUPBiCG:  Solving for T, Initial residual = 6.00212e-07, Final residual = 3.58402e-09, No Iterations 1
 T goes from min(T) [0 0 0 0 0 0 0] -1.83383e-11 to max(T) [0 0 0 0 0 0 0] 0.952111

ExecutionTime = 6.24 s  ClockTime = 110 s

Time = 0.32
Courant Number mean: 0.441555 max: 1.02578
DILUPBiCG:  Solving for T, Initial residual = 0.0139546, Final residual = 5.00122e-10, No Iterations 4
DILUPBiCG:  Solving for T, Initial residual = 0.000210856, Final residual = 1.74624e-10, No Iterations 3
DILUPBiCG:  Solving for T, Initial residual = 7.08859e-06, Final residual = 1.33739e-09, No Iterations 2
DILUPBiCG:  Solving for T, Initial residual = 6.18833e-07, Final residual = 3.84809e-09, No Iterations 1
 T goes from min(T) [0 0 0 0 0 0 0] -1.33028e-10 to max(T) [0 0 0 0 0 0 0] 0.951345

ExecutionTime = 6.4 s  ClockTime = 114 s

Time = 0.33
Courant Number mean: 0.440252 max: 1.0267
DILUPBiCG:  Solving for T, Initial residual = 0.013964, Final residual = 3.10577e-10, No Iterations 4
DILUPBiCG:  Solving for T, Initial residual = 0.000214961, Final residual = 1.90471e-10, No Iterations 3
DILUPBiCG:  Solving for T, Initial residual = 7.34139e-06, Final residual = 9.50179e-10, No Iterations 2
DILUPBiCG:  Solving for T, Initial residual = 6.34503e-07, Final residual = 4.14241e-09, No Iterations 1
 T goes from min(T) [0 0 0 0 0 0 0] -2.72912e-10 to max(T) [0 0 0 0 0 0 0] 0.950562

ExecutionTime = 6.54 s  ClockTime = 116 s

Time = 0.34
Courant Number mean: 0.438915 max: 1.02736
DILUPBiCG:  Solving for T, Initial residual = 0.0139934, Final residual = 2.58147e-10, No Iterations 4
DILUPBiCG:  Solving for T, Initial residual = 0.000218853, Final residual = 3.12411e-10, No Iterations 3
DILUPBiCG:  Solving for T, Initial residual = 7.56025e-06, Final residual = 9.11566e-10, No Iterations 2
DILUPBiCG:  Solving for T, Initial residual = 6.46907e-07, Final residual = 4.47942e-09, No Iterations 1
 T goes from min(T) [0 0 0 0 0 0 0] -3.93212e-10 to max(T) [0 0 0 0 0 0 0] 0.947911

ExecutionTime = 6.67 s  ClockTime = 119 s

Time = 0.35
Courant Number mean: 0.437588 max: 1.02774
DILUPBiCG:  Solving for T, Initial residual = 0.0140266, Final residual = 2.58401e-10, No Iterations 4
DILUPBiCG:  Solving for T, Initial residual = 0.000223094, Final residual = 2.55328e-10, No Iterations 3
DILUPBiCG:  Solving for T, Initial residual = 7.74882e-06, Final residual = 9.14957e-10, No Iterations 2
DILUPBiCG:  Solving for T, Initial residual = 6.61052e-07, Final residual = 4.82777e-09, No Iterations 1
 T goes from min(T) [0 0 0 0 0 0 0] -2.97076e-09 to max(T) [0 0 0 0 0 0 0] 0.948751

ExecutionTime = 6.81 s  ClockTime = 121 s

Time = 0.36
Courant Number mean: 0.436241 max: 1.02902
DILUPBiCG:  Solving for T, Initial residual = 0.0140532, Final residual = 2.69261e-10, No Iterations 4
DILUPBiCG:  Solving for T, Initial residual = 0.000227054, Final residual = 2.87922e-10, No Iterations 3
DILUPBiCG:  Solving for T, Initial residual = 7.97776e-06, Final residual = 9.30153e-10, No Iterations 2
DILUPBiCG:  Solving for T, Initial residual = 6.71206e-07, Final residual = 5.21191e-09, No Iterations 1
 T goes from min(T) [0 0 0 0 0 0 0] -5.48842e-09 to max(T) [0 0 0 0 0 0 0] 0.951087

ExecutionTime = 6.94 s  ClockTime = 124 s

Time = 0.37
Courant Number mean: 0.434865 max: 1.03013
DILUPBiCG:  Solving for T, Initial residual = 0.0140665, Final residual = 2.83903e-10, No Iterations 4
DILUPBiCG:  Solving for T, Initial residual = 0.000231354, Final residual = 3.43279e-10, No Iterations 3
DILUPBiCG:  Solving for T, Initial residual = 8.24226e-06, Final residual = 9.57758e-10, No Iterations 2
DILUPBiCG:  Solving for T, Initial residual = 6.85422e-07, Final residual = 5.63244e-09, No Iterations 1
 T goes from min(T) [0 0 0 0 0 0 0] -7.73215e-09 to max(T) [0 0 0 0 0 0 0] 0.947618

ExecutionTime = 7.07 s  ClockTime = 127 s

Time = 0.38
Courant Number mean: 0.433464 max: 1.03096
DILUPBiCG:  Solving for T, Initial residual = 0.0140997, Final residual = 3.00249e-10, No Iterations 4
DILUPBiCG:  Solving for T, Initial residual = 0.000236015, Final residual = 4.29505e-10, No Iterations 3
DILUPBiCG:  Solving for T, Initial residual = 8.47863e-06, Final residual = 9.91948e-10, No Iterations 2
DILUPBiCG:  Solving for T, Initial residual = 7.0093e-07, Final residual = 6.06163e-09, No Iterations 1
 T goes from min(T) [0 0 0 0 0 0 0] -9.74441e-09 to max(T) [0 0 0 0 0 0 0] 0.94302

ExecutionTime = 7.21 s  ClockTime = 129 s

Time = 0.39
Courant Number mean: 0.432059 max: 1.03152
DILUPBiCG:  Solving for T, Initial residual = 0.0141347, Final residual = 3.17297e-10, No Iterations 4
DILUPBiCG:  Solving for T, Initial residual = 0.00023999, Final residual = 5.69071e-10, No Iterations 3
DILUPBiCG:  Solving for T, Initial residual = 8.75077e-06, Final residual = 1.03218e-09, No Iterations 2
DILUPBiCG:  Solving for T, Initial residual = 7.13855e-07, Final residual = 6.54876e-09, No Iterations 1
 T goes from min(T) [0 0 0 0 0 0 0] -1.15596e-08 to max(T) [0 0 0 0 0 0 0] 0.9449

ExecutionTime = 7.34 s  ClockTime = 132 s

Time = 0.4
Courant Number mean: 0.430648 max: 1.03181
DILUPBiCG:  Solving for T, Initial residual = 0.0141706, Final residual = 3.3497e-10, No Iterations 4
DILUPBiCG:  Solving for T, Initial residual = 0.000244043, Final residual = 8.30751e-10, No Iterations 3
DILUPBiCG:  Solving for T, Initial residual = 8.98035e-06, Final residual = 1.08108e-09, No Iterations 2
DILUPBiCG:  Solving for T, Initial residual = 7.29363e-07, Final residual = 7.08393e-09, No Iterations 1
 T goes from min(T) [0 0 0 0 0 0 0] -1.32054e-08 to max(T) [0 0 0 0 0 0 0] 0.949005

ExecutionTime = 7.49 s  ClockTime = 135 s

Time = 0.41
Courant Number mean: 0.429213 max: 1.0319
DILUPBiCG:  Solving for T, Initial residual = 0.014182, Final residual = 3.53826e-10, No Iterations 4
DILUPBiCG:  Solving for T, Initial residual = 0.000248731, Final residual = 1.43039e-09, No Iterations 3
DILUPBiCG:  Solving for T, Initial residual = 9.18874e-06, Final residual = 1.13789e-09, No Iterations 2
DILUPBiCG:  Solving for T, Initial residual = 7.44349e-07, Final residual = 7.60704e-09, No Iterations 1
 T goes from min(T) [0 0 0 0 0 0 0] -2.52768e-08 to max(T) [0 0 0 0 0 0 0] 0.947326

ExecutionTime = 7.62 s  ClockTime = 138 s

Time = 0.42
Courant Number mean: 0.427748 max: 1.03249
DILUPBiCG:  Solving for T, Initial residual = 0.0142204, Final residual = 3.72889e-10, No Iterations 4
DILUPBiCG:  Solving for T, Initial residual = 0.000253047, Final residual = 3.63587e-09, No Iterations 3
DILUPBiCG:  Solving for T, Initial residual = 9.44326e-06, Final residual = 1.20058e-09, No Iterations 2
DILUPBiCG:  Solving for T, Initial residual = 7.5463e-07, Final residual = 8.15846e-09, No Iterations 1
 T goes from min(T) [0 0 0 0 0 0 0] -6.37965e-08 to max(T) [0 0 0 0 0 0 0] 0.942618

ExecutionTime = 7.75 s  ClockTime = 141 s

Time = 0.43
Courant Number mean: 0.426269 max: 1.03322
DILUPBiCG:  Solving for T, Initial residual = 0.0142686, Final residual = 3.9278e-10, No Iterations 4
DILUPBiCG:  Solving for T, Initial residual = 0.000257885, Final residual = 9.74313e-12, No Iterations 4
DILUPBiCG:  Solving for T, Initial residual = 9.65826e-06, Final residual = 1.26493e-09, No Iterations 2
DILUPBiCG:  Solving for T, Initial residual = 7.71713e-07, Final residual = 8.74288e-09, No Iterations 1
 T goes from min(T) [0 0 0 0 0 0 0] -1.01691e-07 to max(T) [0 0 0 0 0 0 0] 0.941574

ExecutionTime = 7.88 s  ClockTime = 144 s

Time = 0.44
Courant Number mean: 0.424802 max: 1.03367
DILUPBiCG:  Solving for T, Initial residual = 0.0143076, Final residual = 4.13461e-10, No Iterations 4
DILUPBiCG:  Solving for T, Initial residual = 0.000262562, Final residual = 3.94988e-09, No Iterations 3
DILUPBiCG:  Solving for T, Initial residual = 9.90694e-06, Final residual = 1.34659e-09, No Iterations 2
DILUPBiCG:  Solving for T, Initial residual = 7.87439e-07, Final residual = 9.28828e-09, No Iterations 1
 T goes from min(T) [0 0 0 0 0 0 0] -1.3659e-07 to max(T) [0 0 0 0 0 0 0] 0.944897

ExecutionTime = 8.04 s  ClockTime = 148 s

Time = 0.45
Courant Number mean: 0.423321 max: 1.03386
DILUPBiCG:  Solving for T, Initial residual = 0.0143507, Final residual = 4.34907e-10, No Iterations 4
DILUPBiCG:  Solving for T, Initial residual = 0.000266438, Final residual = 2.89936e-09, No Iterations 3
DILUPBiCG:  Solving for T, Initial residual = 1.02271e-05, Final residual = 1.43106e-09, No Iterations 2
DILUPBiCG:  Solving for T, Initial residual = 8.00727e-07, Final residual = 9.90735e-09, No Iterations 1
 T goes from min(T) [0 0 0 0 0 0 0] -1.68726e-07 to max(T) [0 0 0 0 0 0 0] 0.947417

ExecutionTime = 8.17 s  ClockTime = 152 s

Time = 0.46
Courant Number mean: 0.421811 max: 1.03412
DILUPBiCG:  Solving for T, Initial residual = 0.0143856, Final residual = 4.57408e-10, No Iterations 4
DILUPBiCG:  Solving for T, Initial residual = 0.000270828, Final residual = 3.08459e-09, No Iterations 3
DILUPBiCG:  Solving for T, Initial residual = 1.0487e-05, Final residual = 1.51884e-09, No Iterations 2
DILUPBiCG:  Solving for T, Initial residual = 8.20128e-07, Final residual = 1.27493e-10, No Iterations 2
 T goes from min(T) [0 0 0 0 0 0 0] -1.98323e-07 to max(T) [0 0 0 0 0 0 0] 0.944526

ExecutionTime = 8.32 s  ClockTime = 156 s

Time = 0.47
Courant Number mean: 0.420279 max: 1.0346
DILUPBiCG:  Solving for T, Initial residual = 0.0144302, Final residual = 4.81563e-10, No Iterations 4
DILUPBiCG:  Solving for T, Initial residual = 0.00027564, Final residual = 4.16807e-09, No Iterations 3
DILUPBiCG:  Solving for T, Initial residual = 1.075e-05, Final residual = 1.62681e-09, No Iterations 2
DILUPBiCG:  Solving for T, Initial residual = 8.40725e-07, Final residual = 1.37957e-10, No Iterations 2
 T goes from min(T) [0 0 0 0 0 0 0] -2.2561e-07 to max(T) [0 0 0 0 0 0 0] 0.941309

ExecutionTime = 8.46 s  ClockTime = 159 s

Time = 0.48
Courant Number mean: 0.418755 max: 1.03481
DILUPBiCG:  Solving for T, Initial residual = 0.0144786, Final residual = 5.076e-10, No Iterations 4
DILUPBiCG:  Solving for T, Initial residual = 0.000280156, Final residual = 6.68177e-09, No Iterations 3
DILUPBiCG:  Solving for T, Initial residual = 1.1066e-05, Final residual = 1.73292e-09, No Iterations 2
DILUPBiCG:  Solving for T, Initial residual = 8.56305e-07, Final residual = 1.49115e-10, No Iterations 2
 T goes from min(T) [0 0 0 0 0 0 0] -2.5082e-07 to max(T) [0 0 0 0 0 0 0] 0.942487

ExecutionTime = 8.59 s  ClockTime = 162 s

Time = 0.49
Courant Number mean: 0.417219 max: 1.03474
DILUPBiCG:  Solving for T, Initial residual = 0.0145404, Final residual = 5.39562e-10, No Iterations 4
DILUPBiCG:  Solving for T, Initial residual = 0.000285023, Final residual = 2.72057e-11, No Iterations 4
DILUPBiCG:  Solving for T, Initial residual = 1.13675e-05, Final residual = 1.8445e-09, No Iterations 2
DILUPBiCG:  Solving for T, Initial residual = 8.81473e-07, Final residual = 1.63653e-10, No Iterations 2
 T goes from min(T) [0 0 0 0 0 0 0] -2.742e-07 to max(T) [0 0 0 0 0 0 0] 0.943182

ExecutionTime = 8.73 s  ClockTime = 164 s

Time = 0.5
Courant Number mean: 0.415666 max: 1.03441
DILUPBiCG:  Solving for T, Initial residual = 0.0145888, Final residual = 5.87622e-10, No Iterations 4
DILUPBiCG:  Solving for T, Initial residual = 0.000289805, Final residual = 2.57263e-11, No Iterations 4
DILUPBiCG:  Solving for T, Initial residual = 1.16619e-05, Final residual = 1.97551e-09, No Iterations 2
DILUPBiCG:  Solving for T, Initial residual = 9.08196e-07, Final residual = 1.78878e-10, No Iterations 2
 T goes from min(T) [0 0 0 0 0 0 0] -2.96018e-07 to max(T) [0 0 0 0 0 0 0] 0.942752

ExecutionTime = 8.87 s  ClockTime = 167 s

Time = 0.51
Courant Number mean: 0.414092 max: 1.0343
DILUPBiCG:  Solving for T, Initial residual = 0.014616, Final residual = 7.07285e-10, No Iterations 4
DILUPBiCG:  Solving for T, Initial residual = 0.000294472, Final residual = 2.41402e-11, No Iterations 4
DILUPBiCG:  Solving for T, Initial residual = 1.20189e-05, Final residual = 2.10983e-09, No Iterations 2
DILUPBiCG:  Solving for T, Initial residual = 9.32148e-07, Final residual = 1.94976e-10, No Iterations 2
 T goes from min(T) [0 0 0 0 0 0 0] -3.16564e-07 to max(T) [0 0 0 0 0 0 0] 0.942279

ExecutionTime = 9 s  ClockTime = 169 s

Time = 0.52
Courant Number mean: 0.412512 max: 1.03467
DILUPBiCG:  Solving for T, Initial residual = 0.01467, Final residual = 1.03171e-09, No Iterations 4
DILUPBiCG:  Solving for T, Initial residual = 0.000299774, Final residual = 2.28725e-11, No Iterations 4
DILUPBiCG:  Solving for T, Initial residual = 1.24137e-05, Final residual = 2.2482e-09, No Iterations 2
DILUPBiCG:  Solving for T, Initial residual = 9.66194e-07, Final residual = 2.16869e-10, No Iterations 2
 T goes from min(T) [0 0 0 0 0 0 0] -8.70724e-07 to max(T) [0 0 0 0 0 0 0] 0.937946

ExecutionTime = 9.14 s  ClockTime = 172 s

Time = 0.53
Courant Number mean: 0.41094 max: 1.03477
DILUPBiCG:  Solving for T, Initial residual = 0.0147289, Final residual = 3.44507e-09, No Iterations 4
DILUPBiCG:  Solving for T, Initial residual = 0.000305473, Final residual = 8.30275e-09, No Iterations 3
DILUPBiCG:  Solving for T, Initial residual = 1.27969e-05, Final residual = 2.41007e-09, No Iterations 2
DILUPBiCG:  Solving for T, Initial residual = 1.00147e-06, Final residual = 2.3836e-10, No Iterations 2
 T goes from min(T) [0 0 0 0 0 0 0] -2.41293e-06 to max(T) [0 0 0 0 0 0 0] 0.932685

ExecutionTime = 9.27 s  ClockTime = 175 s

Time = 0.54
Courant Number mean: 0.409353 max: 1.03461
DILUPBiCG:  Solving for T, Initial residual = 0.0147878, Final residual = 1.37803e-09, No Iterations 4
DILUPBiCG:  Solving for T, Initial residual = 0.000310605, Final residual = 4.69149e-09, No Iterations 3
DILUPBiCG:  Solving for T, Initial residual = 1.31847e-05, Final residual = 2.56264e-09, No Iterations 2
DILUPBiCG:  Solving for T, Initial residual = 1.03018e-06, Final residual = 2.64129e-10, No Iterations 2
 T goes from min(T) [0 0 0 0 0 0 0] -3.87956e-06 to max(T) [0 0 0 0 0 0 0] 0.932527

ExecutionTime = 9.41 s  ClockTime = 177 s

Time = 0.55
Courant Number mean: 0.407738 max: 1.03417
DILUPBiCG:  Solving for T, Initial residual = 0.0148278, Final residual = 8.0326e-10, No Iterations 4
DILUPBiCG:  Solving for T, Initial residual = 0.000316076, Final residual = 3.09497e-09, No Iterations 3
DILUPBiCG:  Solving for T, Initial residual = 1.35922e-05, Final residual = 2.73383e-09, No Iterations 2
DILUPBiCG:  Solving for T, Initial residual = 1.06542e-06, Final residual = 2.95615e-10, No Iterations 2
 T goes from min(T) [0 0 0 0 0 0 0] -5.24159e-06 to max(T) [0 0 0 0 0 0 0] 0.931112

ExecutionTime = 9.54 s  ClockTime = 180 s

Time = 0.56
Courant Number mean: 0.406119 max: 1.03347
DILUPBiCG:  Solving for T, Initial residual = 0.0148932, Final residual = 7.42331e-10, No Iterations 4
DILUPBiCG:  Solving for T, Initial residual = 0.000322234, Final residual = 2.27795e-09, No Iterations 3
DILUPBiCG:  Solving for T, Initial residual = 1.40071e-05, Final residual = 2.92544e-09, No Iterations 2
DILUPBiCG:  Solving for T, Initial residual = 1.10881e-06, Final residual = 3.31557e-10, No Iterations 2
 T goes from min(T) [0 0 0 0 0 0 0] -6.46985e-06 to max(T) [0 0 0 0 0 0 0] 0.934757

ExecutionTime = 9.68 s  ClockTime = 182 s

Time = 0.57
Courant Number mean: 0.404515 max: 1.03269
DILUPBiCG:  Solving for T, Initial residual = 0.0149444, Final residual = 7.3871e-10, No Iterations 4
DILUPBiCG:  Solving for T, Initial residual = 0.000327869, Final residual = 1.83475e-09, No Iterations 3
DILUPBiCG:  Solving for T, Initial residual = 1.44808e-05, Final residual = 3.165e-09, No Iterations 2
DILUPBiCG:  Solving for T, Initial residual = 1.14772e-06, Final residual = 3.74254e-10, No Iterations 2
 T goes from min(T) [0 0 0 0 0 0 0] -7.94628e-06 to max(T) [0 0 0 0 0 0 0] 0.936497

ExecutionTime = 9.81 s  ClockTime = 185 s

Time = 0.58
Courant Number mean: 0.402899 max: 1.03268
DILUPBiCG:  Solving for T, Initial residual = 0.0149826, Final residual = 7.49793e-10, No Iterations 4
DILUPBiCG:  Solving for T, Initial residual = 0.000333853, Final residual = 1.59731e-09, No Iterations 3
DILUPBiCG:  Solving for T, Initial residual = 1.4955e-05, Final residual = 3.45892e-09, No Iterations 2
DILUPBiCG:  Solving for T, Initial residual = 1.18271e-06, Final residual = 4.26736e-10, No Iterations 2
 T goes from min(T) [0 0 0 0 0 0 0] -1.03063e-05 to max(T) [0 0 0 0 0 0 0] 0.934494

ExecutionTime = 9.95 s  ClockTime = 188 s

Time = 0.59
Courant Number mean: 0.401262 max: 1.0324
DILUPBiCG:  Solving for T, Initial residual = 0.0150276, Final residual = 7.66559e-10, No Iterations 4
DILUPBiCG:  Solving for T, Initial residual = 0.000340361, Final residual = 1.46669e-09, No Iterations 3
DILUPBiCG:  Solving for T, Initial residual = 1.54148e-05, Final residual = 3.77633e-09, No Iterations 2
DILUPBiCG:  Solving for T, Initial residual = 1.23725e-06, Final residual = 4.93289e-10, No Iterations 2
 T goes from min(T) [0 0 0 0 0 0 0] -1.23265e-05 to max(T) [0 0 0 0 0 0 0] 0.931264

ExecutionTime = 10.09 s  ClockTime = 190 s

Time = 0.6
Courant Number mean: 0.399605 max: 1.03186
DILUPBiCG:  Solving for T, Initial residual = 0.015097, Final residual = 7.87258e-10, No Iterations 4
DILUPBiCG:  Solving for T, Initial residual = 0.000346608, Final residual = 1.40747e-09, No Iterations 3
DILUPBiCG:  Solving for T, Initial residual = 1.59369e-05, Final residual = 4.149e-09, No Iterations 2
DILUPBiCG:  Solving for T, Initial residual = 1.28888e-06, Final residual = 5.69342e-10, No Iterations 2
 T goes from min(T) [0 0 0 0 0 0 0] -1.39656e-05 to max(T) [0 0 0 0 0 0 0] 0.926031

ExecutionTime = 10.22 s  ClockTime = 193 s

Time = 0.61
Courant Number mean: 0.397961 max: 1.03105
DILUPBiCG:  Solving for T, Initial residual = 0.0151709, Final residual = 8.08065e-10, No Iterations 4
DILUPBiCG:  Solving for T, Initial residual = 0.000353643, Final residual = 1.3876e-09, No Iterations 3
DILUPBiCG:  Solving for T, Initial residual = 1.65007e-05, Final residual = 4.55969e-09, No Iterations 2
DILUPBiCG:  Solving for T, Initial residual = 1.33476e-06, Final residual = 6.70013e-10, No Iterations 2
 T goes from min(T) [0 0 0 0 0 0 0] -1.51932e-05 to max(T) [0 0 0 0 0 0 0] 0.920718

ExecutionTime = 10.36 s  ClockTime = 195 s

Time = 0.62
Courant Number mean: 0.396312 max: 1.02998
DILUPBiCG:  Solving for T, Initial residual = 0.0152256, Final residual = 8.26585e-10, No Iterations 4
DILUPBiCG:  Solving for T, Initial residual = 0.000361329, Final residual = 1.39069e-09, No Iterations 3
DILUPBiCG:  Solving for T, Initial residual = 1.70615e-05, Final residual = 5.01806e-09, No Iterations 2
DILUPBiCG:  Solving for T, Initial residual = 1.38797e-06, Final residual = 7.93829e-10, No Iterations 2
 T goes from min(T) [0 0 0 0 0 0 0] -1.61375e-05 to max(T) [0 0 0 0 0 0 0] 0.92247

ExecutionTime = 10.49 s  ClockTime = 198 s

Time = 0.63
Courant Number mean: 0.394652 max: 1.02941
DILUPBiCG:  Solving for T, Initial residual = 0.0152715, Final residual = 8.43847e-10, No Iterations 4
DILUPBiCG:  Solving for T, Initial residual = 0.000368597, Final residual = 1.42009e-09, No Iterations 3
DILUPBiCG:  Solving for T, Initial residual = 1.76101e-05, Final residual = 5.54296e-09, No Iterations 2
DILUPBiCG:  Solving for T, Initial residual = 1.45245e-06, Final residual = 9.55258e-10, No Iterations 2
 T goes from min(T) [0 0 0 0 0 0 0] -1.82739e-05 to max(T) [0 0 0 0 0 0 0] 0.920862

ExecutionTime = 10.63 s  ClockTime = 200 s

Time = 0.64
Courant Number mean: 0.392971 max: 1.02865
DILUPBiCG:  Solving for T, Initial residual = 0.0153305, Final residual = 8.57903e-10, No Iterations 4
DILUPBiCG:  Solving for T, Initial residual = 0.000375166, Final residual = 1.46153e-09, No Iterations 3
DILUPBiCG:  Solving for T, Initial residual = 1.82097e-05, Final residual = 6.08614e-09, No Iterations 2
DILUPBiCG:  Solving for T, Initial residual = 1.51117e-06, Final residual = 1.16068e-09, No Iterations 2
 T goes from min(T) [0 0 0 0 0 0 0] -1.96797e-05 to max(T) [0 0 0 0 0 0 0] 0.924978

ExecutionTime = 10.77 s  ClockTime = 203 s

Time = 0.65
Courant Number mean: 0.391297 max: 1.02763
DILUPBiCG:  Solving for T, Initial residual = 0.0153899, Final residual = 8.65655e-10, No Iterations 4
DILUPBiCG:  Solving for T, Initial residual = 0.000383456, Final residual = 1.51614e-09, No Iterations 3
DILUPBiCG:  Solving for T, Initial residual = 1.88581e-05, Final residual = 6.68725e-09, No Iterations 2
DILUPBiCG:  Solving for T, Initial residual = 1.56715e-06, Final residual = 1.43526e-09, No Iterations 2
 T goes from min(T) [0 0 0 0 0 0 0] -2.0375e-05 to max(T) [0 0 0 0 0 0 0] 0.92523

ExecutionTime = 10.9 s  ClockTime = 206 s

Time = 0.66
Courant Number mean: 0.389627 max: 1.02657
DILUPBiCG:  Solving for T, Initial residual = 0.0154298, Final residual = 8.66389e-10, No Iterations 4
DILUPBiCG:  Solving for T, Initial residual = 0.000391196, Final residual = 1.58278e-09, No Iterations 3
DILUPBiCG:  Solving for T, Initial residual = 1.94564e-05, Final residual = 7.31221e-09, No Iterations 2
DILUPBiCG:  Solving for T, Initial residual = 1.6348e-06, Final residual = 1.78551e-09, No Iterations 2
 T goes from min(T) [0 0 0 0 0 0 0] -2.04038e-05 to max(T) [0 0 0 0 0 0 0] 0.9247

ExecutionTime = 11.07 s  ClockTime = 209 s

Time = 0.67
Courant Number mean: 0.387951 max: 1.02558
DILUPBiCG:  Solving for T, Initial residual = 0.0154831, Final residual = 8.62396e-10, No Iterations 4
DILUPBiCG:  Solving for T, Initial residual = 0.000399227, Final residual = 1.66012e-09, No Iterations 3
DILUPBiCG:  Solving for T, Initial residual = 2.00912e-05, Final residual = 7.96188e-09, No Iterations 2
DILUPBiCG:  Solving for T, Initial residual = 1.70441e-06, Final residual = 2.22943e-09, No Iterations 2
 T goes from min(T) [0 0 0 0 0 0 0] -2.22952e-05 to max(T) [0 0 0 0 0 0 0] 0.923622

ExecutionTime = 11.23 s  ClockTime = 212 s

Time = 0.68
Courant Number mean: 0.386264 max: 1.02498
DILUPBiCG:  Solving for T, Initial residual = 0.0155586, Final residual = 8.56276e-10, No Iterations 4
DILUPBiCG:  Solving for T, Initial residual = 0.000407517, Final residual = 1.74372e-09, No Iterations 3
DILUPBiCG:  Solving for T, Initial residual = 2.07512e-05, Final residual = 8.60431e-09, No Iterations 2
DILUPBiCG:  Solving for T, Initial residual = 1.76998e-06, Final residual = 2.73799e-09, No Iterations 2
 T goes from min(T) [0 0 0 0 0 0 0] -3.01885e-05 to max(T) [0 0 0 0 0 0 0] 0.91856

ExecutionTime = 11.36 s  ClockTime = 214 s

Time = 0.69
Courant Number mean: 0.384571 max: 1.02411
DILUPBiCG:  Solving for T, Initial residual = 0.0156203, Final residual = 8.54307e-10, No Iterations 4
DILUPBiCG:  Solving for T, Initial residual = 0.000415001, Final residual = 1.82619e-09, No Iterations 3
DILUPBiCG:  Solving for T, Initial residual = 2.14397e-05, Final residual = 9.18887e-09, No Iterations 2
DILUPBiCG:  Solving for T, Initial residual = 1.83378e-06, Final residual = 3.20947e-09, No Iterations 2
 T goes from min(T) [0 0 0 0 0 0 0] -3.77064e-05 to max(T) [0 0 0 0 0 0 0] 0.914721

ExecutionTime = 11.5 s  ClockTime = 217 s

Time = 0.7
Courant Number mean: 0.382882 max: 1.02299
DILUPBiCG:  Solving for T, Initial residual = 0.0156744, Final residual = 8.72793e-10, No Iterations 4
DILUPBiCG:  Solving for T, Initial residual = 0.000423261, Final residual = 1.9193e-09, No Iterations 3
DILUPBiCG:  Solving for T, Initial residual = 2.20758e-05, Final residual = 9.74203e-09, No Iterations 2
DILUPBiCG:  Solving for T, Initial residual = 1.90709e-06, Final residual = 3.484e-09, No Iterations 2
 T goes from min(T) [0 0 0 0 0 0 0] -4.30313e-05 to max(T) [0 0 0 0 0 0 0] 0.915839

ExecutionTime = 11.63 s  ClockTime = 219 s

Time = 0.71
Courant Number mean: 0.381184 max: 1.02161
DILUPBiCG:  Solving for T, Initial residual = 0.0157492, Final residual = 9.03294e-10, No Iterations 4
DILUPBiCG:  Solving for T, Initial residual = 0.000431849, Final residual = 2.03211e-09, No Iterations 3
DILUPBiCG:  Solving for T, Initial residual = 2.28137e-05, Final residual = 1.45612e-10, No Iterations 3
DILUPBiCG:  Solving for T, Initial residual = 1.98426e-06, Final residual = 3.44885e-09, No Iterations 2
 T goes from min(T) [0 0 0 0 0 0 0] -4.66413e-05 to max(T) [0 0 0 0 0 0 0] 0.912995

ExecutionTime = 11.75 s  ClockTime = 222 s

Time = 0.72
Courant Number mean: 0.379487 max: 1.01997
DILUPBiCG:  Solving for T, Initial residual = 0.015811, Final residual = 9.58574e-10, No Iterations 4
DILUPBiCG:  Solving for T, Initial residual = 0.000441157, Final residual = 2.15496e-09, No Iterations 3
DILUPBiCG:  Solving for T, Initial residual = 2.35836e-05, Final residual = 1.57925e-10, No Iterations 3
DILUPBiCG:  Solving for T, Initial residual = 2.05795e-06, Final residual = 3.63422e-09, No Iterations 2
 T goes from min(T) [0 0 0 0 0 0 0] -4.80547e-05 to max(T) [0 0 0 0 0 0 0] 0.913121

ExecutionTime = 11.89 s  ClockTime = 224 s

Time = 0.73
Courant Number mean: 0.377775 max: 1.0185
DILUPBiCG:  Solving for T, Initial residual = 0.0158816, Final residual = 1.04134e-09, No Iterations 4
DILUPBiCG:  Solving for T, Initial residual = 0.000449885, Final residual = 2.26259e-09, No Iterations 3
DILUPBiCG:  Solving for T, Initial residual = 2.42655e-05, Final residual = 1.68466e-10, No Iterations 3
DILUPBiCG:  Solving for T, Initial residual = 2.13026e-06, Final residual = 5.05267e-09, No Iterations 2
 T goes from min(T) [0 0 0 0 0 0 0] -6.18213e-05 to max(T) [0 0 0 0 0 0 0] 0.911575

ExecutionTime = 12.01 s  ClockTime = 227 s

Time = 0.74
Courant Number mean: 0.376076 max: 1.01753
DILUPBiCG:  Solving for T, Initial residual = 0.0159387, Final residual = 1.12333e-09, No Iterations 4
DILUPBiCG:  Solving for T, Initial residual = 0.000458144, Final residual = 2.3151e-09, No Iterations 3
DILUPBiCG:  Solving for T, Initial residual = 2.50263e-05, Final residual = 1.7345e-10, No Iterations 3
DILUPBiCG:  Solving for T, Initial residual = 2.21657e-06, Final residual = 1.45777e-10, No Iterations 3
 T goes from min(T) [0 0 0 0 0 0 0] -7.41266e-05 to max(T) [0 0 0 0 0 0 0] 0.914363

ExecutionTime = 12.15 s  ClockTime = 229 s

Time = 0.75
Courant Number mean: 0.374379 max: 1.0163
DILUPBiCG:  Solving for T, Initial residual = 0.0160065, Final residual = 1.17872e-09, No Iterations 4
DILUPBiCG:  Solving for T, Initial residual = 0.000466835, Final residual = 2.32154e-09, No Iterations 3
DILUPBiCG:  Solving for T, Initial residual = 2.58365e-05, Final residual = 1.76861e-10, No Iterations 3
DILUPBiCG:  Solving for T, Initial residual = 2.3035e-06, Final residual = 1.43803e-09, No Iterations 2
 T goes from min(T) [0 0 0 0 0 0 0] -8.21347e-05 to max(T) [0 0 0 0 0 0 0] 0.914885

ExecutionTime = 12.29 s  ClockTime = 232 s

Time = 0.76
Courant Number mean: 0.372678 max: 1.01482
DILUPBiCG:  Solving for T, Initial residual = 0.0160688, Final residual = 1.19566e-09, No Iterations 4
DILUPBiCG:  Solving for T, Initial residual = 0.000475587, Final residual = 2.28636e-09, No Iterations 3
DILUPBiCG:  Solving for T, Initial residual = 2.66162e-05, Final residual = 1.85091e-10, No Iterations 3
DILUPBiCG:  Solving for T, Initial residual = 2.39344e-06, Final residual = 9.32684e-10, No Iterations 2
 T goes from min(T) [0 0 0 0 0 0 0] -8.25726e-05 to max(T) [0 0 0 0 0 0 0] 0.913335

ExecutionTime = 12.42 s  ClockTime = 234 s

Time = 0.77
Courant Number mean: 0.370969 max: 1.01308
DILUPBiCG:  Solving for T, Initial residual = 0.016146, Final residual = 1.17455e-09, No Iterations 4
DILUPBiCG:  Solving for T, Initial residual = 0.00048256, Final residual = 2.25359e-09, No Iterations 3
DILUPBiCG:  Solving for T, Initial residual = 2.73127e-05, Final residual = 2.11789e-10, No Iterations 3
DILUPBiCG:  Solving for T, Initial residual = 2.47974e-06, Final residual = 9.42074e-10, No Iterations 2
 T goes from min(T) [0 0 0 0 0 0 0] -8.99408e-05 to max(T) [0 0 0 0 0 0 0] 0.914254

ExecutionTime = 12.55 s  ClockTime = 236 s

Time = 0.78
Courant Number mean: 0.369259 max: 1.01109
DILUPBiCG:  Solving for T, Initial residual = 0.0162114, Final residual = 1.1255e-09, No Iterations 4
DILUPBiCG:  Solving for T, Initial residual = 0.000489084, Final residual = 2.21303e-09, No Iterations 3
DILUPBiCG:  Solving for T, Initial residual = 2.80134e-05, Final residual = 3.27454e-10, No Iterations 3
DILUPBiCG:  Solving for T, Initial residual = 2.57576e-06, Final residual = 1.02584e-09, No Iterations 2
 T goes from min(T) [0 0 0 0 0 0 0] -0.00010714 to max(T) [0 0 0 0 0 0 0] 0.915473

ExecutionTime = 12.69 s  ClockTime = 239 s

Time = 0.79
Courant Number mean: 0.367571 max: 1.00922
DILUPBiCG:  Solving for T, Initial residual = 0.016268, Final residual = 1.0601e-09, No Iterations 4
DILUPBiCG:  Solving for T, Initial residual = 0.00049632, Final residual = 2.19276e-09, No Iterations 3
DILUPBiCG:  Solving for T, Initial residual = 2.88679e-05, Final residual = 5.3493e-12, No Iterations 4
DILUPBiCG:  Solving for T, Initial residual = 2.65708e-06, Final residual = 1.14502e-09, No Iterations 2
 T goes from min(T) [0 0 0 0 0 0 0] -0.000117799 to max(T) [0 0 0 0 0 0 0] 0.914669

ExecutionTime = 12.83 s  ClockTime = 241 s

Time = 0.8
Courant Number mean: 0.365875 max: 1.00761
DILUPBiCG:  Solving for T, Initial residual = 0.0163521, Final residual = 9.91283e-10, No Iterations 4
DILUPBiCG:  Solving for T, Initial residual = 0.000504272, Final residual = 2.1529e-09, No Iterations 3
DILUPBiCG:  Solving for T, Initial residual = 2.95223e-05, Final residual = 4.7305e-10, No Iterations 3
DILUPBiCG:  Solving for T, Initial residual = 2.75122e-06, Final residual = 1.30363e-09, No Iterations 2
 T goes from min(T) [0 0 0 0 0 0 0] -0.000329262 to max(T) [0 0 0 0 0 0 0] 0.912034

ExecutionTime = 12.96 s  ClockTime = 243 s

Time = 0.81
Courant Number mean: 0.364164 max: 1.00602
DILUPBiCG:  Solving for T, Initial residual = 0.0164325, Final residual = 9.27005e-10, No Iterations 4
DILUPBiCG:  Solving for T, Initial residual = 0.000510787, Final residual = 2.10915e-09, No Iterations 3
DILUPBiCG:  Solving for T, Initial residual = 3.01236e-05, Final residual = 3.16055e-10, No Iterations 3
DILUPBiCG:  Solving for T, Initial residual = 2.82556e-06, Final residual = 1.4889e-09, No Iterations 2
 T goes from min(T) [0 0 0 0 0 0 0] -0.000713025 to max(T) [0 0 0 0 0 0 0] 0.914068

ExecutionTime = 13.11 s  ClockTime = 246 s

Time = 0.82
Courant Number mean: 0.362459 max: 1.00419
DILUPBiCG:  Solving for T, Initial residual = 0.0165181, Final residual = 8.64814e-10, No Iterations 4
DILUPBiCG:  Solving for T, Initial residual = 0.000516164, Final residual = 2.0538e-09, No Iterations 3
DILUPBiCG:  Solving for T, Initial residual = 3.07846e-05, Final residual = 2.68472e-10, No Iterations 3
DILUPBiCG:  Solving for T, Initial residual = 2.90702e-06, Final residual = 1.67063e-09, No Iterations 2
 T goes from min(T) [0 0 0 0 0 0 0] -0.0010341 to max(T) [0 0 0 0 0 0 0] 0.914391

ExecutionTime = 13.26 s  ClockTime = 248 s

Time = 0.83
Courant Number mean: 0.360779 max: 1.00211
DILUPBiCG:  Solving for T, Initial residual = 0.0165732, Final residual = 8.09503e-10, No Iterations 4
DILUPBiCG:  Solving for T, Initial residual = 0.000522728, Final residual = 2.09294e-09, No Iterations 3
DILUPBiCG:  Solving for T, Initial residual = 3.14066e-05, Final residual = 2.49207e-10, No Iterations 3
DILUPBiCG:  Solving for T, Initial residual = 2.96557e-06, Final residual = 1.85707e-09, No Iterations 2
 T goes from min(T) [0 0 0 0 0 0 0] -0.00127216 to max(T) [0 0 0 0 0 0 0] 0.912908

ExecutionTime = 13.41 s  ClockTime = 251 s

Time = 0.84
Courant Number mean: 0.359093 max: 1.0004
DILUPBiCG:  Solving for T, Initial residual = 0.0166615, Final residual = 7.66734e-10, No Iterations 4
DILUPBiCG:  Solving for T, Initial residual = 0.000530237, Final residual = 2.07894e-09, No Iterations 3
DILUPBiCG:  Solving for T, Initial residual = 3.18659e-05, Final residual = 2.39909e-10, No Iterations 3
DILUPBiCG:  Solving for T, Initial residual = 3.0434e-06, Final residual = 1.99024e-09, No Iterations 2
 T goes from min(T) [0 0 0 0 0 0 0] -0.00165988 to max(T) [0 0 0 0 0 0 0] 0.909804

ExecutionTime = 13.55 s  ClockTime = 253 s

Time = 0.85
Courant Number mean: 0.357405 max: 0.998639
DILUPBiCG:  Solving for T, Initial residual = 0.0167517, Final residual = 7.23452e-10, No Iterations 4
DILUPBiCG:  Solving for T, Initial residual = 0.00053559, Final residual = 2.03422e-09, No Iterations 3
DILUPBiCG:  Solving for T, Initial residual = 3.21801e-05, Final residual = 2.32802e-10, No Iterations 3
DILUPBiCG:  Solving for T, Initial residual = 3.09932e-06, Final residual = 2.08667e-09, No Iterations 2
 T goes from min(T) [0 0 0 0 0 0 0] -0.00212829 to max(T) [0 0 0 0 0 0 0] 0.911409

ExecutionTime = 13.67 s  ClockTime = 255 s

Time = 0.86
Courant Number mean: 0.355722 max: 0.996638
DILUPBiCG:  Solving for T, Initial residual = 0.0168283, Final residual = 6.81584e-10, No Iterations 4
DILUPBiCG:  Solving for T, Initial residual = 0.000538806, Final residual = 1.94378e-09, No Iterations 3
DILUPBiCG:  Solving for T, Initial residual = 3.26329e-05, Final residual = 2.30021e-10, No Iterations 3
DILUPBiCG:  Solving for T, Initial residual = 3.15719e-06, Final residual = 2.16465e-09, No Iterations 2
 T goes from min(T) [0 0 0 0 0 0 0] -0.00259392 to max(T) [0 0 0 0 0 0 0] 0.911423

ExecutionTime = 13.8 s  ClockTime = 258 s

Time = 0.87
Courant Number mean: 0.354045 max: 0.994395
DILUPBiCG:  Solving for T, Initial residual = 0.0168977, Final residual = 6.45638e-10, No Iterations 4
DILUPBiCG:  Solving for T, Initial residual = 0.000542619, Final residual = 1.91864e-09, No Iterations 3
DILUPBiCG:  Solving for T, Initial residual = 3.31063e-05, Final residual = 2.20759e-10, No Iterations 3
DILUPBiCG:  Solving for T, Initial residual = 3.21955e-06, Final residual = 2.20348e-09, No Iterations 2
 T goes from min(T) [0 0 0 0 0 0 0] -0.00296513 to max(T) [0 0 0 0 0 0 0] 0.90982

ExecutionTime = 13.92 s  ClockTime = 260 s

Time = 0.88
Courant Number mean: 0.352384 max: 0.991913
DILUPBiCG:  Solving for T, Initial residual = 0.0169794, Final residual = 6.07565e-10, No Iterations 4
DILUPBiCG:  Solving for T, Initial residual = 0.000548707, Final residual = 1.87645e-09, No Iterations 3
DILUPBiCG:  Solving for T, Initial residual = 3.34833e-05, Final residual = 2.07779e-10, No Iterations 3
DILUPBiCG:  Solving for T, Initial residual = 3.28336e-06, Final residual = 2.2577e-09, No Iterations 2
 T goes from min(T) [0 0 0 0 0 0 0] -0.00335839 to max(T) [0 0 0 0 0 0 0] 0.90677

ExecutionTime = 14.04 s  ClockTime = 262 s

Time = 0.89
Courant Number mean: 0.350739 max: 0.98963
DILUPBiCG:  Solving for T, Initial residual = 0.0170627, Final residual = 5.75559e-10, No Iterations 4
DILUPBiCG:  Solving for T, Initial residual = 0.000551423, Final residual = 1.88782e-09, No Iterations 3
DILUPBiCG:  Solving for T, Initial residual = 3.37191e-05, Final residual = 1.90528e-10, No Iterations 3
DILUPBiCG:  Solving for T, Initial residual = 3.33898e-06, Final residual = 2.29892e-09, No Iterations 2
 T goes from min(T) [0 0 0 0 0 0 0] -0.00365969 to max(T) [0 0 0 0 0 0 0] 0.906226

ExecutionTime = 14.17 s  ClockTime = 264 s

Time = 0.9
Courant Number mean: 0.349086 max: 0.987777
DILUPBiCG:  Solving for T, Initial residual = 0.0171617, Final residual = 5.49958e-10, No Iterations 4
DILUPBiCG:  Solving for T, Initial residual = 0.000552479, Final residual = 1.98823e-09, No Iterations 3
DILUPBiCG:  Solving for T, Initial residual = 3.39253e-05, Final residual = 1.73512e-10, No Iterations 3
DILUPBiCG:  Solving for T, Initial residual = 3.39144e-06, Final residual = 2.39476e-09, No Iterations 2
 T goes from min(T) [0 0 0 0 0 0 0] -0.00420639 to max(T) [0 0 0 0 0 0 0] 0.906426

ExecutionTime = 14.29 s  ClockTime = 266 s

Time = 0.91
Courant Number mean: 0.347429 max: 0.985686
DILUPBiCG:  Solving for T, Initial residual = 0.0172398, Final residual = 5.14262e-10, No Iterations 4
DILUPBiCG:  Solving for T, Initial residual = 0.000555027, Final residual = 2.13259e-09, No Iterations 3
DILUPBiCG:  Solving for T, Initial residual = 3.43076e-05, Final residual = 1.60405e-10, No Iterations 3
DILUPBiCG:  Solving for T, Initial residual = 3.44257e-06, Final residual = 2.49133e-09, No Iterations 2
 T goes from min(T) [0 0 0 0 0 0 0] -0.00497847 to max(T) [0 0 0 0 0 0 0] 0.905164

ExecutionTime = 14.43 s  ClockTime = 268 s

Time = 0.92
Courant Number mean: 0.345806 max: 0.983361
DILUPBiCG:  Solving for T, Initial residual = 0.0173084, Final residual = 4.65856e-10, No Iterations 4
DILUPBiCG:  Solving for T, Initial residual = 0.000557848, Final residual = 2.32013e-09, No Iterations 3
DILUPBiCG:  Solving for T, Initial residual = 3.46942e-05, Final residual = 1.49562e-10, No Iterations 3
DILUPBiCG:  Solving for T, Initial residual = 3.47179e-06, Final residual = 2.61525e-09, No Iterations 2
 T goes from min(T) [0 0 0 0 0 0 0] -0.00551984 to max(T) [0 0 0 0 0 0 0] 0.903753

ExecutionTime = 14.55 s  ClockTime = 270 s

Time = 0.93
Courant Number mean: 0.344196 max: 0.980802
DILUPBiCG:  Solving for T, Initial residual = 0.017412, Final residual = 4.11143e-10, No Iterations 4
DILUPBiCG:  Solving for T, Initial residual = 0.000560734, Final residual = 2.56194e-09, No Iterations 3
DILUPBiCG:  Solving for T, Initial residual = 3.48061e-05, Final residual = 1.39765e-10, No Iterations 3
DILUPBiCG:  Solving for T, Initial residual = 3.5041e-06, Final residual = 2.70971e-09, No Iterations 2
 T goes from min(T) [0 0 0 0 0 0 0] -0.00579931 to max(T) [0 0 0 0 0 0 0] 0.901331

ExecutionTime = 14.68 s  ClockTime = 272 s

Time = 0.94
Courant Number mean: 0.342585 max: 0.978014
DILUPBiCG:  Solving for T, Initial residual = 0.0174833, Final residual = 3.6124e-10, No Iterations 4
DILUPBiCG:  Solving for T, Initial residual = 0.000562823, Final residual = 2.72883e-09, No Iterations 3
DILUPBiCG:  Solving for T, Initial residual = 3.47578e-05, Final residual = 1.34759e-10, No Iterations 3
DILUPBiCG:  Solving for T, Initial residual = 3.51371e-06, Final residual = 2.82277e-09, No Iterations 2
 T goes from min(T) [0 0 0 0 0 0 0] -0.0060111 to max(T) [0 0 0 0 0 0 0] 0.898817

ExecutionTime = 14.81 s  ClockTime = 275 s

Time = 0.95
Courant Number mean: 0.34098 max: 0.975078
DILUPBiCG:  Solving for T, Initial residual = 0.0175796, Final residual = 3.31456e-10, No Iterations 4
DILUPBiCG:  Solving for T, Initial residual = 0.000563803, Final residual = 2.69094e-09, No Iterations 3
DILUPBiCG:  Solving for T, Initial residual = 3.47671e-05, Final residual = 1.28687e-10, No Iterations 3
DILUPBiCG:  Solving for T, Initial residual = 3.51559e-06, Final residual = 2.88962e-09, No Iterations 2
 T goes from min(T) [0 0 0 0 0 0 0] -0.00641247 to max(T) [0 0 0 0 0 0 0] 0.899076

ExecutionTime = 14.94 s  ClockTime = 277 s

Time = 0.96
Courant Number mean: 0.339403 max: 0.97287
DILUPBiCG:  Solving for T, Initial residual = 0.017665, Final residual = 3.92949e-10, No Iterations 4
DILUPBiCG:  Solving for T, Initial residual = 0.000565331, Final residual = 2.45293e-09, No Iterations 3
DILUPBiCG:  Solving for T, Initial residual = 3.4856e-05, Final residual = 1.26238e-10, No Iterations 3
DILUPBiCG:  Solving for T, Initial residual = 3.51368e-06, Final residual = 2.88376e-09, No Iterations 2
 T goes from min(T) [0 0 0 0 0 0 0] -0.00676321 to max(T) [0 0 0 0 0 0 0] 0.900333

ExecutionTime = 15.07 s  ClockTime = 279 s

Time = 0.97
Courant Number mean: 0.337841 max: 0.970462
DILUPBiCG:  Solving for T, Initial residual = 0.0177486, Final residual = 7.1746e-10, No Iterations 4
DILUPBiCG:  Solving for T, Initial residual = 0.000567976, Final residual = 2.09011e-09, No Iterations 3
DILUPBiCG:  Solving for T, Initial residual = 3.477e-05, Final residual = 1.20232e-10, No Iterations 3
DILUPBiCG:  Solving for T, Initial residual = 3.52643e-06, Final residual = 2.93521e-09, No Iterations 2
 T goes from min(T) [0 0 0 0 0 0 0] -0.00765761 to max(T) [0 0 0 0 0 0 0] 0.899528

ExecutionTime = 15.19 s  ClockTime = 281 s

Time = 0.98
Courant Number mean: 0.336289 max: 0.967828
DILUPBiCG:  Solving for T, Initial residual = 0.0178558, Final residual = 2.11e-09, No Iterations 4
DILUPBiCG:  Solving for T, Initial residual = 0.000568915, Final residual = 1.75095e-09, No Iterations 3
DILUPBiCG:  Solving for T, Initial residual = 3.4555e-05, Final residual = 1.12844e-10, No Iterations 3
DILUPBiCG:  Solving for T, Initial residual = 3.49572e-06, Final residual = 2.91252e-09, No Iterations 2
 T goes from min(T) [0 0 0 0 0 0 0] -0.00828865 to max(T) [0 0 0 0 0 0 0] 0.896837

ExecutionTime = 15.33 s  ClockTime = 283 s

Time = 0.99
Courant Number mean: 0.334761 max: 0.964972
DILUPBiCG:  Solving for T, Initial residual = 0.0179529, Final residual = 3.89878e-09, No Iterations 4
DILUPBiCG:  Solving for T, Initial residual = 0.000569874, Final residual = 1.52371e-09, No Iterations 3
DILUPBiCG:  Solving for T, Initial residual = 3.42435e-05, Final residual = 1.06056e-10, No Iterations 3
DILUPBiCG:  Solving for T, Initial residual = 3.47644e-06, Final residual = 2.83556e-09, No Iterations 2
 T goes from min(T) [0 0 0 0 0 0 0] -0.00882673 to max(T) [0 0 0 0 0 0 0] 0.892444

ExecutionTime = 15.48 s  ClockTime = 286 s

Time = 1
Courant Number mean: 0.333235 max: 0.961896
DILUPBiCG:  Solving for T, Initial residual = 0.0180347, Final residual = 1.21444e-09, No Iterations 4
DILUPBiCG:  Solving for T, Initial residual = 0.00056965, Final residual = 1.35945e-09, No Iterations 3
DILUPBiCG:  Solving for T, Initial residual = 3.41523e-05, Final residual = 9.8316e-11, No Iterations 3
DILUPBiCG:  Solving for T, Initial residual = 3.46551e-06, Final residual = 2.77333e-09, No Iterations 2
 T goes from min(T) [0 0 0 0 0 0 0] -0.00919178 to max(T) [0 0 0 0 0 0 0] 0.89198

ExecutionTime = 15.65 s  ClockTime = 289 s

Time = 1.01
Courant Number mean: 0.331742 max: 0.958603
DILUPBiCG:  Solving for T, Initial residual = 0.0181483, Final residual = 7.40889e-10, No Iterations 4
DILUPBiCG:  Solving for T, Initial residual = 0.000569819, Final residual = 1.22557e-09, No Iterations 3
DILUPBiCG:  Solving for T, Initial residual = 3.40492e-05, Final residual = 9.01381e-11, No Iterations 3
DILUPBiCG:  Solving for T, Initial residual = 3.43935e-06, Final residual = 2.70006e-09, No Iterations 2
 T goes from min(T) [0 0 0 0 0 0 0] -0.00980956 to max(T) [0 0 0 0 0 0 0] 0.893174

ExecutionTime = 15.79 s  ClockTime = 291 s

Time = 1.02
Courant Number mean: 0.33028 max: 0.955096
DILUPBiCG:  Solving for T, Initial residual = 0.0182351, Final residual = 5.09539e-10, No Iterations 4
DILUPBiCG:  Solving for T, Initial residual = 0.000570475, Final residual = 1.13549e-09, No Iterations 3
DILUPBiCG:  Solving for T, Initial residual = 3.39021e-05, Final residual = 8.26496e-11, No Iterations 3
DILUPBiCG:  Solving for T, Initial residual = 3.41304e-06, Final residual = 2.60798e-09, No Iterations 2
 T goes from min(T) [0 0 0 0 0 0 0] -0.00981935 to max(T) [0 0 0 0 0 0 0] 0.892606

ExecutionTime = 15.94 s  ClockTime = 294 s

Time = 1.03
Courant Number mean: 0.328833 max: 0.951381
DILUPBiCG:  Solving for T, Initial residual = 0.0183466, Final residual = 3.56594e-10, No Iterations 4
DILUPBiCG:  Solving for T, Initial residual = 0.000571005, Final residual = 1.06853e-09, No Iterations 3
DILUPBiCG:  Solving for T, Initial residual = 3.37759e-05, Final residual = 9.39736e-09, No Iterations 2
DILUPBiCG:  Solving for T, Initial residual = 3.38695e-06, Final residual = 2.51978e-09, No Iterations 2
 T goes from min(T) [0 0 0 0 0 0 0] -0.010853 to max(T) [0 0 0 0 0 0 0] 0.89044

ExecutionTime = 16.08 s  ClockTime = 296 s

Time = 1.04
Courant Number mean: 0.327403 max: 0.947459
DILUPBiCG:  Solving for T, Initial residual = 0.0184595, Final residual = 2.41923e-10, No Iterations 4
DILUPBiCG:  Solving for T, Initial residual = 0.000570464, Final residual = 9.94267e-10, No Iterations 3
DILUPBiCG:  Solving for T, Initial residual = 3.35001e-05, Final residual = 8.71225e-09, No Iterations 2
DILUPBiCG:  Solving for T, Initial residual = 3.33674e-06, Final residual = 2.36977e-09, No Iterations 2
 T goes from min(T) [0 0 0 0 0 0 0] -0.0116286 to max(T) [0 0 0 0 0 0 0] 0.886838

ExecutionTime = 16.23 s  ClockTime = 299 s

Time = 1.05
Courant Number mean: 0.326 max: 0.943335
DILUPBiCG:  Solving for T, Initial residual = 0.0185407, Final residual = 2.40698e-10, No Iterations 4
DILUPBiCG:  Solving for T, Initial residual = 0.000570962, Final residual = 9.34342e-10, No Iterations 3
DILUPBiCG:  Solving for T, Initial residual = 3.31848e-05, Final residual = 8.1085e-09, No Iterations 2
DILUPBiCG:  Solving for T, Initial residual = 3.2872e-06, Final residual = 2.24502e-09, No Iterations 2
 T goes from min(T) [0 0 0 0 0 0 0] -0.0128603 to max(T) [0 0 0 0 0 0 0] 0.884101

ExecutionTime = 16.36 s  ClockTime = 301 s

Time = 1.06
Courant Number mean: 0.324644 max: 0.939012
DILUPBiCG:  Solving for T, Initial residual = 0.0186497, Final residual = 5.86385e-10, No Iterations 4
DILUPBiCG:  Solving for T, Initial residual = 0.000573167, Final residual = 9.02991e-10, No Iterations 3
DILUPBiCG:  Solving for T, Initial residual = 3.3053e-05, Final residual = 7.69214e-09, No Iterations 2
DILUPBiCG:  Solving for T, Initial residual = 3.25254e-06, Final residual = 2.15907e-09, No Iterations 2
 T goes from min(T) [0 0 0 0 0 0 0] -0.013422 to max(T) [0 0 0 0 0 0 0] 0.886294

ExecutionTime = 16.49 s  ClockTime = 303 s

Time = 1.07
Courant Number mean: 0.323331 max: 0.934496
DILUPBiCG:  Solving for T, Initial residual = 0.0187738, Final residual = 2.02236e-09, No Iterations 4
DILUPBiCG:  Solving for T, Initial residual = 0.000572659, Final residual = 8.89533e-10, No Iterations 3
DILUPBiCG:  Solving for T, Initial residual = 3.27813e-05, Final residual = 7.0799e-09, No Iterations 2
DILUPBiCG:  Solving for T, Initial residual = 3.17925e-06, Final residual = 2.01374e-09, No Iterations 2
 T goes from min(T) [0 0 0 0 0 0 0] -0.0148656 to max(T) [0 0 0 0 0 0 0] 0.886309

ExecutionTime = 16.62 s  ClockTime = 306 s

Time = 1.08
Courant Number mean: 0.322065 max: 0.92979
DILUPBiCG:  Solving for T, Initial residual = 0.0188657, Final residual = 3.88391e-09, No Iterations 4
DILUPBiCG:  Solving for T, Initial residual = 0.00057374, Final residual = 8.96615e-10, No Iterations 3
DILUPBiCG:  Solving for T, Initial residual = 3.24902e-05, Final residual = 6.47439e-09, No Iterations 2
DILUPBiCG:  Solving for T, Initial residual = 3.11008e-06, Final residual = 1.86695e-09, No Iterations 2
 T goes from min(T) [0 0 0 0 0 0 0] -0.0150564 to max(T) [0 0 0 0 0 0 0] 0.884312

ExecutionTime = 16.76 s  ClockTime = 308 s

Time = 1.09
Courant Number mean: 0.32084 max: 0.924898
DILUPBiCG:  Solving for T, Initial residual = 0.0189766, Final residual = 1.25154e-09, No Iterations 4
DILUPBiCG:  Solving for T, Initial residual = 0.000574703, Final residual = 9.26198e-10, No Iterations 3
DILUPBiCG:  Solving for T, Initial residual = 3.22122e-05, Final residual = 5.96943e-09, No Iterations 2
DILUPBiCG:  Solving for T, Initial residual = 3.06487e-06, Final residual = 1.74662e-09, No Iterations 2
 T goes from min(T) [0 0 0 0 0 0 0] -0.0170907 to max(T) [0 0 0 0 0 0 0] 0.882314

ExecutionTime = 16.88 s  ClockTime = 310 s

Time = 1.1
Courant Number mean: 0.31966 max: 0.919826
DILUPBiCG:  Solving for T, Initial residual = 0.0190909, Final residual = 8.1302e-10, No Iterations 4
DILUPBiCG:  Solving for T, Initial residual = 0.000573123, Final residual = 1.06274e-09, No Iterations 3
DILUPBiCG:  Solving for T, Initial residual = 3.18798e-05, Final residual = 5.53789e-09, No Iterations 2
DILUPBiCG:  Solving for T, Initial residual = 3.02263e-06, Final residual = 1.63173e-09, No Iterations 2
 T goes from min(T) [0 0 0 0 0 0 0] -0.0167286 to max(T) [0 0 0 0 0 0 0] 0.87932

ExecutionTime = 17.01 s  ClockTime = 312 s

Time = 1.11
Courant Number mean: 0.318525 max: 0.914577
DILUPBiCG:  Solving for T, Initial residual = 0.0191637, Final residual = 6.29364e-10, No Iterations 4
DILUPBiCG:  Solving for T, Initial residual = 0.000576506, Final residual = 1.27546e-09, No Iterations 3
DILUPBiCG:  Solving for T, Initial residual = 3.16677e-05, Final residual = 5.26933e-09, No Iterations 2
DILUPBiCG:  Solving for T, Initial residual = 2.96381e-06, Final residual = 1.53062e-09, No Iterations 2
 T goes from min(T) [0 0 0 0 0 0 0] -0.0180564 to max(T) [0 0 0 0 0 0 0] 0.875952

ExecutionTime = 17.14 s  ClockTime = 314 s

Time = 1.12
Courant Number mean: 0.317453 max: 0.909215
DILUPBiCG:  Solving for T, Initial residual = 0.0192894, Final residual = 5.2582e-10, No Iterations 4
DILUPBiCG:  Solving for T, Initial residual = 0.000578522, Final residual = 1.48028e-09, No Iterations 3
DILUPBiCG:  Solving for T, Initial residual = 3.15028e-05, Final residual = 4.90896e-09, No Iterations 2
DILUPBiCG:  Solving for T, Initial residual = 2.90095e-06, Final residual = 1.39816e-09, No Iterations 2
 T goes from min(T) [0 0 0 0 0 0 0] -0.0190121 to max(T) [0 0 0 0 0 0 0] 0.876107

ExecutionTime = 17.27 s  ClockTime = 316 s

Time = 1.13
Courant Number mean: 0.31642 max: 0.90391
DILUPBiCG:  Solving for T, Initial residual = 0.0193991, Final residual = 4.57125e-10, No Iterations 4
DILUPBiCG:  Solving for T, Initial residual = 0.000577511, Final residual = 1.65223e-09, No Iterations 3
DILUPBiCG:  Solving for T, Initial residual = 3.12501e-05, Final residual = 4.52741e-09, No Iterations 2
DILUPBiCG:  Solving for T, Initial residual = 2.84824e-06, Final residual = 1.2803e-09, No Iterations 2
 T goes from min(T) [0 0 0 0 0 0 0] -0.0179757 to max(T) [0 0 0 0 0 0 0] 0.875769

ExecutionTime = 17.4 s  ClockTime = 319 s

Time = 1.14
Courant Number mean: 0.315413 max: 0.898441
DILUPBiCG:  Solving for T, Initial residual = 0.0194924, Final residual = 4.08042e-10, No Iterations 4
DILUPBiCG:  Solving for T, Initial residual = 0.00058013, Final residual = 1.78537e-09, No Iterations 3
DILUPBiCG:  Solving for T, Initial residual = 3.09316e-05, Final residual = 4.30929e-09, No Iterations 2
DILUPBiCG:  Solving for T, Initial residual = 2.79142e-06, Final residual = 1.18729e-09, No Iterations 2
 T goes from min(T) [0 0 0 0 0 0 0] -0.019164 to max(T) [0 0 0 0 0 0 0] 0.874136

ExecutionTime = 17.53 s  ClockTime = 321 s

Time = 1.15
Courant Number mean: 0.314481 max: 0.892815
DILUPBiCG:  Solving for T, Initial residual = 0.0196251, Final residual = 3.6966e-10, No Iterations 4
DILUPBiCG:  Solving for T, Initial residual = 0.000582033, Final residual = 1.85467e-09, No Iterations 3
DILUPBiCG:  Solving for T, Initial residual = 3.06827e-05, Final residual = 4.09254e-09, No Iterations 2
DILUPBiCG:  Solving for T, Initial residual = 2.75195e-06, Final residual = 1.09971e-09, No Iterations 2
 T goes from min(T) [0 0 0 0 0 0 0] -0.0202377 to max(T) [0 0 0 0 0 0 0] 0.873578

ExecutionTime = 17.66 s  ClockTime = 323 s

Time = 1.16
Courant Number mean: 0.313604 max: 0.887034
DILUPBiCG:  Solving for T, Initial residual = 0.0197036, Final residual = 3.37491e-10, No Iterations 4
DILUPBiCG:  Solving for T, Initial residual = 0.000582186, Final residual = 1.84507e-09, No Iterations 3
DILUPBiCG:  Solving for T, Initial residual = 3.05591e-05, Final residual = 3.85732e-09, No Iterations 2
DILUPBiCG:  Solving for T, Initial residual = 2.69985e-06, Final residual = 1.00814e-09, No Iterations 2
 T goes from min(T) [0 0 0 0 0 0 0] -0.0194853 to max(T) [0 0 0 0 0 0 0] 0.871182

ExecutionTime = 17.78 s  ClockTime = 325 s

Time = 1.17
Courant Number mean: 0.312765 max: 0.881106
DILUPBiCG:  Solving for T, Initial residual = 0.0197876, Final residual = 3.10634e-10, No Iterations 4
DILUPBiCG:  Solving for T, Initial residual = 0.000585358, Final residual = 1.78695e-09, No Iterations 3
DILUPBiCG:  Solving for T, Initial residual = 3.03556e-05, Final residual = 3.59762e-09, No Iterations 2
DILUPBiCG:  Solving for T, Initial residual = 2.64366e-06, Final residual = 9.02553e-10, No Iterations 2
 T goes from min(T) [0 0 0 0 0 0 0] -0.018201 to max(T) [0 0 0 0 0 0 0] 0.869729

ExecutionTime = 17.93 s  ClockTime = 328 s

Time = 1.18
Courant Number mean: 0.311959 max: 0.875035
DILUPBiCG:  Solving for T, Initial residual = 0.0199184, Final residual = 2.87275e-10, No Iterations 4
DILUPBiCG:  Solving for T, Initial residual = 0.000588335, Final residual = 1.70134e-09, No Iterations 3
DILUPBiCG:  Solving for T, Initial residual = 3.01944e-05, Final residual = 3.39474e-09, No Iterations 2
DILUPBiCG:  Solving for T, Initial residual = 2.61131e-06, Final residual = 8.35117e-10, No Iterations 2
 T goes from min(T) [0 0 0 0 0 0 0] -0.0203208 to max(T) [0 0 0 0 0 0 0] 0.869744

ExecutionTime = 18.06 s  ClockTime = 330 s

Time = 1.19
Courant Number mean: 0.311203 max: 0.868826
DILUPBiCG:  Solving for T, Initial residual = 0.0200576, Final residual = 2.6697e-10, No Iterations 4
DILUPBiCG:  Solving for T, Initial residual = 0.000588349, Final residual = 1.59752e-09, No Iterations 3
DILUPBiCG:  Solving for T, Initial residual = 3.00935e-05, Final residual = 3.27561e-09, No Iterations 2
DILUPBiCG:  Solving for T, Initial residual = 2.55534e-06, Final residual = 7.76322e-10, No Iterations 2
 T goes from min(T) [0 0 0 0 0 0 0] -0.0207272 to max(T) [0 0 0 0 0 0 0] 0.869528

ExecutionTime = 18.18 s  ClockTime = 332 s

Time = 1.2
Courant Number mean: 0.310527 max: 0.862485
DILUPBiCG:  Solving for T, Initial residual = 0.0201425, Final residual = 2.49093e-10, No Iterations 4
DILUPBiCG:  Solving for T, Initial residual = 0.000591046, Final residual = 1.47556e-09, No Iterations 3
DILUPBiCG:  Solving for T, Initial residual = 2.98403e-05, Final residual = 3.18092e-09, No Iterations 2
DILUPBiCG:  Solving for T, Initial residual = 2.50173e-06, Final residual = 7.05124e-10, No Iterations 2
 T goes from min(T) [0 0 0 0 0 0 0] -0.0203909 to max(T) [0 0 0 0 0 0 0] 0.869318

ExecutionTime = 18.32 s  ClockTime = 334 s

Time = 1.21
Courant Number mean: 0.309883 max: 0.856017
DILUPBiCG:  Solving for T, Initial residual = 0.0202582, Final residual = 2.33026e-10, No Iterations 4
DILUPBiCG:  Solving for T, Initial residual = 0.000594297, Final residual = 1.3468e-09, No Iterations 3
DILUPBiCG:  Solving for T, Initial residual = 2.96759e-05, Final residual = 3.06844e-09, No Iterations 2
DILUPBiCG:  Solving for T, Initial residual = 2.47138e-06, Final residual = 6.30673e-10, No Iterations 2
 T goes from min(T) [0 0 0 0 0 0 0] -0.0208009 to max(T) [0 0 0 0 0 0 0] 0.868973

ExecutionTime = 18.45 s  ClockTime = 337 s

Time = 1.22
Courant Number mean: 0.309282 max: 0.849428
DILUPBiCG:  Solving for T, Initial residual = 0.0203401, Final residual = 2.1841e-10, No Iterations 4
DILUPBiCG:  Solving for T, Initial residual = 0.000595193, Final residual = 1.21157e-09, No Iterations 3
DILUPBiCG:  Solving for T, Initial residual = 2.97418e-05, Final residual = 2.94643e-09, No Iterations 2
DILUPBiCG:  Solving for T, Initial residual = 2.43974e-06, Final residual = 5.7282e-10, No Iterations 2
 T goes from min(T) [0 0 0 0 0 0 0] -0.0213112 to max(T) [0 0 0 0 0 0 0] 0.868433

ExecutionTime = 18.56 s  ClockTime = 339 s

Time = 1.23
Courant Number mean: 0.308739 max: 0.842723
DILUPBiCG:  Solving for T, Initial residual = 0.0204338, Final residual = 2.0576e-10, No Iterations 4
DILUPBiCG:  Solving for T, Initial residual = 0.000599029, Final residual = 1.09969e-09, No Iterations 3
DILUPBiCG:  Solving for T, Initial residual = 2.97031e-05, Final residual = 2.87957e-09, No Iterations 2
DILUPBiCG:  Solving for T, Initial residual = 2.39609e-06, Final residual = 5.26899e-10, No Iterations 2
 T goes from min(T) [0 0 0 0 0 0 0] -0.0218017 to max(T) [0 0 0 0 0 0 0] 0.867631

ExecutionTime = 18.7 s  ClockTime = 341 s

Time = 1.24
Courant Number mean: 0.308232 max: 0.835909
DILUPBiCG:  Solving for T, Initial residual = 0.0205617, Final residual = 1.93618e-10, No Iterations 4
DILUPBiCG:  Solving for T, Initial residual = 0.000601039, Final residual = 9.87263e-10, No Iterations 3
DILUPBiCG:  Solving for T, Initial residual = 2.94556e-05, Final residual = 2.9048e-09, No Iterations 2
DILUPBiCG:  Solving for T, Initial residual = 2.36787e-06, Final residual = 4.90647e-10, No Iterations 2
 T goes from min(T) [0 0 0 0 0 0 0] -0.0219263 to max(T) [0 0 0 0 0 0 0] 0.866494

ExecutionTime = 18.86 s  ClockTime = 343 s

Time = 1.25
Courant Number mean: 0.307782 max: 0.82899
DILUPBiCG:  Solving for T, Initial residual = 0.0207081, Final residual = 1.82573e-10, No Iterations 4
DILUPBiCG:  Solving for T, Initial residual = 0.000602643, Final residual = 8.88091e-10, No Iterations 3
DILUPBiCG:  Solving for T, Initial residual = 2.94806e-05, Final residual = 2.99565e-09, No Iterations 2
DILUPBiCG:  Solving for T, Initial residual = 2.32835e-06, Final residual = 4.49519e-10, No Iterations 2
 T goes from min(T) [0 0 0 0 0 0 0] -0.0216534 to max(T) [0 0 0 0 0 0 0] 0.864938

ExecutionTime = 18.98 s  ClockTime = 346 s

Time = 1.26
Courant Number mean: 0.307377 max: 0.830396
DILUPBiCG:  Solving for T, Initial residual = 0.0207583, Final residual = 1.72034e-10, No Iterations 4
DILUPBiCG:  Solving for T, Initial residual = 0.000607058, Final residual = 8.47268e-10, No Iterations 3
DILUPBiCG:  Solving for T, Initial residual = 2.95304e-05, Final residual = 3.29124e-09, No Iterations 2
DILUPBiCG:  Solving for T, Initial residual = 2.28746e-06, Final residual = 4.04487e-10, No Iterations 2
 T goes from min(T) [0 0 0 0 0 0 0] -0.0209567 to max(T) [0 0 0 0 0 0 0] 0.862869

ExecutionTime = 19.12 s  ClockTime = 348 s

Time = 1.27
Courant Number mean: 0.307033 max: 0.831596
DILUPBiCG:  Solving for T, Initial residual = 0.0208762, Final residual = 1.6229e-10, No Iterations 4
DILUPBiCG:  Solving for T, Initial residual = 0.00060971, Final residual = 8.0541e-10, No Iterations 3
DILUPBiCG:  Solving for T, Initial residual = 2.92692e-05, Final residual = 4.08982e-09, No Iterations 2
DILUPBiCG:  Solving for T, Initial residual = 2.272e-06, Final residual = 3.66482e-10, No Iterations 2
 T goes from min(T) [0 0 0 0 0 0 0] -0.0215958 to max(T) [0 0 0 0 0 0 0] 0.860197

ExecutionTime = 19.26 s  ClockTime = 350 s

Time = 1.28
Courant Number mean: 0.30672 max: 0.832591
DILUPBiCG:  Solving for T, Initial residual = 0.020993, Final residual = 1.53293e-10, No Iterations 4
DILUPBiCG:  Solving for T, Initial residual = 0.000611708, Final residual = 7.62265e-10, No Iterations 3
DILUPBiCG:  Solving for T, Initial residual = 2.93771e-05, Final residual = 7.83783e-09, No Iterations 2
DILUPBiCG:  Solving for T, Initial residual = 2.25011e-06, Final residual = 3.39759e-10, No Iterations 2
 T goes from min(T) [0 0 0 0 0 0 0] -0.0217554 to max(T) [0 0 0 0 0 0 0] 0.856831

ExecutionTime = 19.39 s  ClockTime = 353 s

Time = 1.29
Courant Number mean: 0.306445 max: 0.83338
DILUPBiCG:  Solving for T, Initial residual = 0.0210711, Final residual = 1.45161e-10, No Iterations 4
DILUPBiCG:  Solving for T, Initial residual = 0.000615573, Final residual = 7.32047e-10, No Iterations 3
DILUPBiCG:  Solving for T, Initial residual = 2.95577e-05, Final residual = 6.40505e-09, No Iterations 3
DILUPBiCG:  Solving for T, Initial residual = 2.22729e-06, Final residual = 3.10376e-10, No Iterations 2
 T goes from min(T) [0 0 0 0 0 0 0] -0.0227741 to max(T) [0 0 0 0 0 0 0] 0.852674

ExecutionTime = 19.52 s  ClockTime = 355 s

Time = 1.3
Courant Number mean: 0.306247 max: 0.833963
DILUPBiCG:  Solving for T, Initial residual = 0.0211898, Final residual = 1.37438e-10, No Iterations 4
DILUPBiCG:  Solving for T, Initial residual = 0.000618799, Final residual = 7.01472e-10, No Iterations 3
DILUPBiCG:  Solving for T, Initial residual = 2.93374e-05, Final residual = 3.51784e-09, No Iterations 2
DILUPBiCG:  Solving for T, Initial residual = 2.21004e-06, Final residual = 2.7911e-10, No Iterations 2
 T goes from min(T) [0 0 0 0 0 0 0] -0.0232087 to max(T) [0 0 0 0 0 0 0] 0.85346

ExecutionTime = 19.65 s  ClockTime = 357 s

Time = 1.31
Courant Number mean: 0.306098 max: 0.834342
DILUPBiCG:  Solving for T, Initial residual = 0.0213251, Final residual = 1.30231e-10, No Iterations 4
DILUPBiCG:  Solving for T, Initial residual = 0.000621525, Final residual = 6.7146e-10, No Iterations 3
DILUPBiCG:  Solving for T, Initial residual = 2.93118e-05, Final residual = 2.15005e-09, No Iterations 2
DILUPBiCG:  Solving for T, Initial residual = 2.19055e-06, Final residual = 2.55624e-10, No Iterations 2
 T goes from min(T) [0 0 0 0 0 0 0] -0.0237623 to max(T) [0 0 0 0 0 0 0] 0.855732

ExecutionTime = 19.78 s  ClockTime = 359 s

Time = 1.32
Courant Number mean: 0.305977 max: 0.834516
[...]
 T goes from min(T) [0 0 0 0 0 0 0] -0.107396 to max(T) [0 0 0 0 0 0 0] 0.60558

ExecutionTime = 79.84 s  ClockTime = 1259 s

Time = 5.68
Courant Number mean: 0.400126 max: 1.01443
DILUPBiCG:  Solving for T, Initial residual = 0.0137351, Final residual = 3.01364e-10, No Iterations 4
DILUPBiCG:  Solving for T, Initial residual = 0.000350265, Final residual = 5.96991e-10, No Iterations 3
DILUPBiCG:  Solving for T, Initial residual = 1.78913e-05, Final residual = 1.70849e-09, No Iterations 2
DILUPBiCG:  Solving for T, Initial residual = 1.53092e-06, Final residual = 5.48768e-10, No Iterations 2
 T goes from min(T) [0 0 0 0 0 0 0] -0.106973 to max(T) [0 0 0 0 0 0 0] 0.604719

ExecutionTime = 79.98 s  ClockTime = 1261 s

Time = 5.69
Courant Number mean: 0.400946 max: 1.01188
DILUPBiCG:  Solving for T, Initial residual = 0.0138396, Final residual = 2.8903e-10, No Iterations 4
DILUPBiCG:  Solving for T, Initial residual = 0.00035389, Final residual = 5.66833e-10, No Iterations 3
DILUPBiCG:  Solving for T, Initial residual = 1.82777e-05, Final residual = 1.67484e-09, No Iterations 2
DILUPBiCG:  Solving for T, Initial residual = 1.57874e-06, Final residual = 3.93533e-10, No Iterations 2
 T goes from min(T) [0 0 0 0 0 0 0] -0.107853 to max(T) [0 0 0 0 0 0 0] 0.605839

ExecutionTime = 80.11 s  ClockTime = 1262 s

Time = 5.7
Courant Number mean: 0.401772 max: 1.00929
DILUPBiCG:  Solving for T, Initial residual = 0.0139258, Final residual = 2.45067e-10, No Iterations 4
DILUPBiCG:  Solving for T, Initial residual = 0.000357487, Final residual = 5.51878e-10, No Iterations 3
DILUPBiCG:  Solving for T, Initial residual = 1.863e-05, Final residual = 1.68987e-09, No Iterations 2
DILUPBiCG:  Solving for T, Initial residual = 1.62834e-06, Final residual = 4.83401e-10, No Iterations 2
 T goes from min(T) [0 0 0 0 0 0 0] -0.106354 to max(T) [0 0 0 0 0 0 0] 0.606456

ExecutionTime = 80.26 s  ClockTime = 1264 s

Time = 5.71
Courant Number mean: 0.402566 max: 1.00646
DILUPBiCG:  Solving for T, Initial residual = 0.0140159, Final residual = 2.17415e-10, No Iterations 4
DILUPBiCG:  Solving for T, Initial residual = 0.000360977, Final residual = 5.45267e-10, No Iterations 3
DILUPBiCG:  Solving for T, Initial residual = 1.89458e-05, Final residual = 1.73229e-09, No Iterations 2
DILUPBiCG:  Solving for T, Initial residual = 1.67308e-06, Final residual = 5.55289e-10, No Iterations 2
 T goes from min(T) [0 0 0 0 0 0 0] -0.107487 to max(T) [0 0 0 0 0 0 0] 0.60656

ExecutionTime = 80.4 s  ClockTime = 1266 s

Time = 5.72
Courant Number mean: 0.403352 max: 1.00338
DILUPBiCG:  Solving for T, Initial residual = 0.0141129, Final residual = 2.06605e-10, No Iterations 4
DILUPBiCG:  Solving for T, Initial residual = 0.000364317, Final residual = 5.43129e-10, No Iterations 3
DILUPBiCG:  Solving for T, Initial residual = 1.9289e-05, Final residual = 1.78045e-09, No Iterations 2
DILUPBiCG:  Solving for T, Initial residual = 1.71327e-06, Final residual = 3.19784e-10, No Iterations 2
 T goes from min(T) [0 0 0 0 0 0 0] -0.107096 to max(T) [0 0 0 0 0 0 0] 0.606142

ExecutionTime = 80.54 s  ClockTime = 1267 s

Time = 5.73
Courant Number mean: 0.404135 max: 1.00005
DILUPBiCG:  Solving for T, Initial residual = 0.0142206, Final residual = 2.07871e-10, No Iterations 4
DILUPBiCG:  Solving for T, Initial residual = 0.000367649, Final residual = 5.46235e-10, No Iterations 3
DILUPBiCG:  Solving for T, Initial residual = 1.95818e-05, Final residual = 1.83814e-09, No Iterations 2
DILUPBiCG:  Solving for T, Initial residual = 1.75413e-06, Final residual = 2.32127e-10, No Iterations 2
 T goes from min(T) [0 0 0 0 0 0 0] -0.105871 to max(T) [0 0 0 0 0 0 0] 0.605347

ExecutionTime = 80.69 s  ClockTime = 1269 s

Time = 5.74
Courant Number mean: 0.404912 max: 0.996487
DILUPBiCG:  Solving for T, Initial residual = 0.0143178, Final residual = 2.13752e-10, No Iterations 4
DILUPBiCG:  Solving for T, Initial residual = 0.000369826, Final residual = 5.52282e-10, No Iterations 3
DILUPBiCG:  Solving for T, Initial residual = 1.98291e-05, Final residual = 1.94727e-09, No Iterations 2
DILUPBiCG:  Solving for T, Initial residual = 1.79015e-06, Final residual = 2.11521e-10, No Iterations 2
 T goes from min(T) [0 0 0 0 0 0 0] -0.106881 to max(T) [0 0 0 0 0 0 0] 0.605067

ExecutionTime = 80.83 s  ClockTime = 1271 s

Time = 5.75
Courant Number mean: 0.405673 max: 0.993328
DILUPBiCG:  Solving for T, Initial residual = 0.0144177, Final residual = 2.2274e-10, No Iterations 4
DILUPBiCG:  Solving for T, Initial residual = 0.000373209, Final residual = 5.57871e-10, No Iterations 3
DILUPBiCG:  Solving for T, Initial residual = 2.02044e-05, Final residual = 8.5422e-11, No Iterations 3
DILUPBiCG:  Solving for T, Initial residual = 1.82293e-06, Final residual = 2.07487e-10, No Iterations 2
 T goes from min(T) [0 0 0 0 0 0 0] -0.10687 to max(T) [0 0 0 0 0 0 0] 0.606068

ExecutionTime = 80.96 s  ClockTime = 1273 s

Time = 5.76
Courant Number mean: 0.406422 max: 0.990451
DILUPBiCG:  Solving for T, Initial residual = 0.0145111, Final residual = 2.35944e-10, No Iterations 4
DILUPBiCG:  Solving for T, Initial residual = 0.000377614, Final residual = 5.68191e-10, No Iterations 3
DILUPBiCG:  Solving for T, Initial residual = 2.0548e-05, Final residual = 2.03538e-09, No Iterations 2
DILUPBiCG:  Solving for T, Initial residual = 1.85248e-06, Final residual = 2.10754e-10, No Iterations 2
 T goes from min(T) [0 0 0 0 0 0 0] -0.105621 to max(T) [0 0 0 0 0 0 0] 0.606647

ExecutionTime = 81.1 s  ClockTime = 1274 s

Time = 5.77
Courant Number mean: 0.407165 max: 0.987333
DILUPBiCG:  Solving for T, Initial residual = 0.0146013, Final residual = 2.74556e-10, No Iterations 4
DILUPBiCG:  Solving for T, Initial residual = 0.000380457, Final residual = 5.87728e-10, No Iterations 3
DILUPBiCG:  Solving for T, Initial residual = 2.08741e-05, Final residual = 1.99957e-09, No Iterations 2
DILUPBiCG:  Solving for T, Initial residual = 1.9026e-06, Final residual = 2.15298e-10, No Iterations 2
 T goes from min(T) [0 0 0 0 0 0 0] -0.10647 to max(T) [0 0 0 0 0 0 0] 0.606806

ExecutionTime = 81.24 s  ClockTime = 1276 s

Time = 5.78
Courant Number mean: 0.40791 max: 0.983974
DILUPBiCG:  Solving for T, Initial residual = 0.0147241, Final residual = 7.04672e-10, No Iterations 4
DILUPBiCG:  Solving for T, Initial residual = 0.000383745, Final residual = 6.42471e-10, No Iterations 3
DILUPBiCG:  Solving for T, Initial residual = 2.13881e-05, Final residual = 2.02289e-09, No Iterations 2
DILUPBiCG:  Solving for T, Initial residual = 1.94827e-06, Final residual = 2.19355e-10, No Iterations 2
 T goes from min(T) [0 0 0 0 0 0 0] -0.107008 to max(T) [0 0 0 0 0 0 0] 0.606547

ExecutionTime = 81.37 s  ClockTime = 1277 s

Time = 5.79
Courant Number mean: 0.408627 max: 0.98038
DILUPBiCG:  Solving for T, Initial residual = 0.0148267, Final residual = 5.92698e-10, No Iterations 4
DILUPBiCG:  Solving for T, Initial residual = 0.000388331, Final residual = 8.86925e-10, No Iterations 3
DILUPBiCG:  Solving for T, Initial residual = 2.19098e-05, Final residual = 2.05064e-09, No Iterations 2
DILUPBiCG:  Solving for T, Initial residual = 1.99902e-06, Final residual = 2.23655e-10, No Iterations 2
 T goes from min(T) [0 0 0 0 0 0 0] -0.105773 to max(T) [0 0 0 0 0 0 0] 0.605939

ExecutionTime = 81.5 s  ClockTime = 1279 s

Time = 5.8
Courant Number mean: 0.409329 max: 0.976757
DILUPBiCG:  Solving for T, Initial residual = 0.0149227, Final residual = 3.01739e-10, No Iterations 4
DILUPBiCG:  Solving for T, Initial residual = 0.000393445, Final residual = 7.75286e-10, No Iterations 3
DILUPBiCG:  Solving for T, Initial residual = 2.23471e-05, Final residual = 2.08136e-09, No Iterations 2
DILUPBiCG:  Solving for T, Initial residual = 2.05409e-06, Final residual = 2.30916e-10, No Iterations 2
 T goes from min(T) [0 0 0 0 0 0 0] -0.105974 to max(T) [0 0 0 0 0 0 0] 0.60562

ExecutionTime = 81.64 s  ClockTime = 1281 s

Time = 5.81
Courant Number mean: 0.410031 max: 0.973449
DILUPBiCG:  Solving for T, Initial residual = 0.0150488, Final residual = 2.49842e-10, No Iterations 4
DILUPBiCG:  Solving for T, Initial residual = 0.000396999, Final residual = 8.21609e-10, No Iterations 3
DILUPBiCG:  Solving for T, Initial residual = 2.27783e-05, Final residual = 2.1119e-09, No Iterations 2
DILUPBiCG:  Solving for T, Initial residual = 2.11491e-06, Final residual = 2.41152e-10, No Iterations 2
 T goes from min(T) [0 0 0 0 0 0 0] -0.106884 to max(T) [0 0 0 0 0 0 0] 0.605093

ExecutionTime = 81.78 s  ClockTime = 1282 s

Time = 5.82
Courant Number mean: 0.410731 max: 0.96991
DILUPBiCG:  Solving for T, Initial residual = 0.0151408, Final residual = 2.37255e-10, No Iterations 4
DILUPBiCG:  Solving for T, Initial residual = 0.000402552, Final residual = 3.71564e-09, No Iterations 3
DILUPBiCG:  Solving for T, Initial residual = 2.33328e-05, Final residual = 2.14115e-09, No Iterations 2
DILUPBiCG:  Solving for T, Initial residual = 2.17666e-06, Final residual = 2.5421e-10, No Iterations 2
 T goes from min(T) [0 0 0 0 0 0 0] -0.106334 to max(T) [0 0 0 0 0 0 0] 0.606048

ExecutionTime = 81.91 s  ClockTime = 1284 s

Time = 5.83
Courant Number mean: 0.411406 max: 0.966317
DILUPBiCG:  Solving for T, Initial residual = 0.0152414, Final residual = 2.35369e-10, No Iterations 4
DILUPBiCG:  Solving for T, Initial residual = 0.000408443, Final residual = 6.06471e-10, No Iterations 3
DILUPBiCG:  Solving for T, Initial residual = 2.3825e-05, Final residual = 2.16618e-09, No Iterations 2
DILUPBiCG:  Solving for T, Initial residual = 2.22794e-06, Final residual = 2.62137e-10, No Iterations 2
 T goes from min(T) [0 0 0 0 0 0 0] -0.104352 to max(T) [0 0 0 0 0 0 0] 0.606677

ExecutionTime = 82.04 s  ClockTime = 1286 s

Time = 5.84
Courant Number mean: 0.41206 max: 0.962711
DILUPBiCG:  Solving for T, Initial residual = 0.0153438, Final residual = 2.40994e-10, No Iterations 4
DILUPBiCG:  Solving for T, Initial residual = 0.000413086, Final residual = 6.17213e-10, No Iterations 3
DILUPBiCG:  Solving for T, Initial residual = 2.42798e-05, Final residual = 2.2014e-09, No Iterations 2
DILUPBiCG:  Solving for T, Initial residual = 2.28945e-06, Final residual = 2.59701e-10, No Iterations 2
 T goes from min(T) [0 0 0 0 0 0 0] -0.105606 to max(T) [0 0 0 0 0 0 0] 0.606989

ExecutionTime = 82.18 s  ClockTime = 1287 s

Time = 5.85
Courant Number mean: 0.412706 max: 0.959223
DILUPBiCG:  Solving for T, Initial residual = 0.0154376, Final residual = 2.58357e-10, No Iterations 4
DILUPBiCG:  Solving for T, Initial residual = 0.000417588, Final residual = 6.24998e-10, No Iterations 3
DILUPBiCG:  Solving for T, Initial residual = 2.47449e-05, Final residual = 2.23488e-09, No Iterations 2
DILUPBiCG:  Solving for T, Initial residual = 2.33592e-06, Final residual = 2.5644e-10, No Iterations 2
 T goes from min(T) [0 0 0 0 0 0 0] -0.106434 to max(T) [0 0 0 0 0 0 0] 0.606992

ExecutionTime = 82.32 s  ClockTime = 1289 s

Time = 5.86
Courant Number mean: 0.413354 max: 0.955885
DILUPBiCG:  Solving for T, Initial residual = 0.0155621, Final residual = 2.94314e-10, No Iterations 4
DILUPBiCG:  Solving for T, Initial residual = 0.000421582, Final residual = 6.25738e-10, No Iterations 3
DILUPBiCG:  Solving for T, Initial residual = 2.52486e-05, Final residual = 2.25234e-09, No Iterations 2
DILUPBiCG:  Solving for T, Initial residual = 2.3795e-06, Final residual = 2.56292e-10, No Iterations 2
 T goes from min(T) [0 0 0 0 0 0 0] -0.106126 to max(T) [0 0 0 0 0 0 0] 0.606695

ExecutionTime = 82.45 s  ClockTime = 1290 s

Time = 5.87
Courant Number mean: 0.413972 max: 0.95232
DILUPBiCG:  Solving for T, Initial residual = 0.0156731, Final residual = 3.52638e-10, No Iterations 4
DILUPBiCG:  Solving for T, Initial residual = 0.000425698, Final residual = 6.18075e-10, No Iterations 3
DILUPBiCG:  Solving for T, Initial residual = 2.5644e-05, Final residual = 2.25836e-09, No Iterations 2
DILUPBiCG:  Solving for T, Initial residual = 2.41805e-06, Final residual = 2.61114e-10, No Iterations 2
 T goes from min(T) [0 0 0 0 0 0 0] -0.104724 to max(T) [0 0 0 0 0 0 0] 0.606228

ExecutionTime = 82.59 s  ClockTime = 1292 s

Time = 5.88
Courant Number mean: 0.414576 max: 0.948531
DILUPBiCG:  Solving for T, Initial residual = 0.0157709, Final residual = 4.16043e-10, No Iterations 4
DILUPBiCG:  Solving for T, Initial residual = 0.00042981, Final residual = 6.04258e-10, No Iterations 3
DILUPBiCG:  Solving for T, Initial residual = 2.60817e-05, Final residual = 2.28115e-09, No Iterations 2
DILUPBiCG:  Solving for T, Initial residual = 2.46663e-06, Final residual = 2.70534e-10, No Iterations 2
 T goes from min(T) [0 0 0 0 0 0 0] -0.103737 to max(T) [0 0 0 0 0 0 0] 0.606309

ExecutionTime = 82.72 s  ClockTime = 1294 s

Time = 5.89
Courant Number mean: 0.415177 max: 0.944522
DILUPBiCG:  Solving for T, Initial residual = 0.0158694, Final residual = 4.59156e-10, No Iterations 4
DILUPBiCG:  Solving for T, Initial residual = 0.00043434, Final residual = 5.95046e-10, No Iterations 3
DILUPBiCG:  Solving for T, Initial residual = 2.64358e-05, Final residual = 2.30205e-09, No Iterations 2
DILUPBiCG:  Solving for T, Initial residual = 2.50152e-06, Final residual = 3.14763e-10, No Iterations 2
 T goes from min(T) [0 0 0 0 0 0 0] -0.10509 to max(T) [0 0 0 0 0 0 0] 0.60616

ExecutionTime = 82.86 s  ClockTime = 1295 s

Time = 5.9
Courant Number mean: 0.415768 max: 0.940298
DILUPBiCG:  Solving for T, Initial residual = 0.0159685, Final residual = 4.65899e-10, No Iterations 4
DILUPBiCG:  Solving for T, Initial residual = 0.000437947, Final residual = 5.88914e-10, No Iterations 3
DILUPBiCG:  Solving for T, Initial residual = 2.6825e-05, Final residual = 2.34238e-09, No Iterations 2
DILUPBiCG:  Solving for T, Initial residual = 2.53233e-06, Final residual = 4.51919e-10, No Iterations 2
 T goes from min(T) [0 0 0 0 0 0 0] -0.10588 to max(T) [0 0 0 0 0 0 0] 0.605795

ExecutionTime = 83 s  ClockTime = 1297 s

Time = 5.91
Courant Number mean: 0.416332 max: 0.93688
DILUPBiCG:  Solving for T, Initial residual = 0.0160637, Final residual = 4.48698e-10, No Iterations 4
DILUPBiCG:  Solving for T, Initial residual = 0.000443481, Final residual = 6.07459e-10, No Iterations 3
DILUPBiCG:  Solving for T, Initial residual = 2.70374e-05, Final residual = 2.38201e-09, No Iterations 2
DILUPBiCG:  Solving for T, Initial residual = 2.54831e-06, Final residual = 6.10853e-10, No Iterations 2
 T goes from min(T) [0 0 0 0 0 0 0] -0.105862 to max(T) [0 0 0 0 0 0 0] 0.605904

ExecutionTime = 83.13 s  ClockTime = 1299 s

Time = 5.92
Courant Number mean: 0.416873 max: 0.933307
DILUPBiCG:  Solving for T, Initial residual = 0.0161811, Final residual = 4.25552e-10, No Iterations 4
DILUPBiCG:  Solving for T, Initial residual = 0.000448121, Final residual = 7.06703e-10, No Iterations 3
DILUPBiCG:  Solving for T, Initial residual = 2.72615e-05, Final residual = 2.4543e-09, No Iterations 2
DILUPBiCG:  Solving for T, Initial residual = 2.5727e-06, Final residual = 6.89012e-09, No Iterations 2
 T goes from min(T) [0 0 0 0 0 0 0] -0.105081 to max(T) [0 0 0 0 0 0 0] 0.606535

ExecutionTime = 83.27 s  ClockTime = 1300 s

Time = 5.93
Courant Number mean: 0.417406 max: 0.929516
DILUPBiCG:  Solving for T, Initial residual = 0.0162765, Final residual = 4.04579e-10, No Iterations 4
DILUPBiCG:  Solving for T, Initial residual = 0.000450472, Final residual = 1.06471e-09, No Iterations 3
DILUPBiCG:  Solving for T, Initial residual = 2.76261e-05, Final residual = 2.59002e-09, No Iterations 2
DILUPBiCG:  Solving for T, Initial residual = 2.59609e-06, Final residual = 5.28231e-10, No Iterations 2
 T goes from min(T) [0 0 0 0 0 0 0] -0.103598 to max(T) [0 0 0 0 0 0 0] 0.606959

ExecutionTime = 83.4 s  ClockTime = 1302 s

Time = 5.94
Courant Number mean: 0.417929 max: 0.92551
DILUPBiCG:  Solving for T, Initial residual = 0.0163689, Final residual = 3.87154e-10, No Iterations 4
DILUPBiCG:  Solving for T, Initial residual = 0.000454697, Final residual = 3.46426e-09, No Iterations 3
DILUPBiCG:  Solving for T, Initial residual = 2.77481e-05, Final residual = 2.72388e-09, No Iterations 2
DILUPBiCG:  Solving for T, Initial residual = 2.59691e-06, Final residual = 4.02887e-10, No Iterations 2
 T goes from min(T) [0 0 0 0 0 0 0] -0.10404 to max(T) [0 0 0 0 0 0 0] 0.607186

ExecutionTime = 83.54 s  ClockTime = 1304 s

Time = 5.95
Courant Number mean: 0.418427 max: 0.921293
DILUPBiCG:  Solving for T, Initial residual = 0.0164809, Final residual = 3.71958e-10, No Iterations 4
DILUPBiCG:  Solving for T, Initial residual = 0.000460426, Final residual = 5.2792e-09, No Iterations 3
DILUPBiCG:  Solving for T, Initial residual = 2.78797e-05, Final residual = 2.81951e-09, No Iterations 2
DILUPBiCG:  Solving for T, Initial residual = 2.59714e-06, Final residual = 3.56696e-10, No Iterations 2
 T goes from min(T) [0 0 0 0 0 0 0] -0.104316 to max(T) [0 0 0 0 0 0 0] 0.607229

ExecutionTime = 83.68 s  ClockTime = 1305 s

Time = 5.96
Courant Number mean: 0.418907 max: 0.916869
DILUPBiCG:  Solving for T, Initial residual = 0.0165872, Final residual = 3.61596e-10, No Iterations 4
DILUPBiCG:  Solving for T, Initial residual = 0.000462691, Final residual = 1.85043e-09, No Iterations 3
DILUPBiCG:  Solving for T, Initial residual = 2.81274e-05, Final residual = 2.86023e-09, No Iterations 2
DILUPBiCG:  Solving for T, Initial residual = 2.60598e-06, Final residual = 3.35748e-10, No Iterations 2
 T goes from min(T) [0 0 0 0 0 0 0] -0.105008 to max(T) [0 0 0 0 0 0 0] 0.607098

ExecutionTime = 83.82 s  ClockTime = 1307 s

Time = 5.97
Courant Number mean: 0.419371 max: 0.913
DILUPBiCG:  Solving for T, Initial residual = 0.0166812, Final residual = 3.52605e-10, No Iterations 4
DILUPBiCG:  Solving for T, Initial residual = 0.000464384, Final residual = 1.20409e-09, No Iterations 3
DILUPBiCG:  Solving for T, Initial residual = 2.81744e-05, Final residual = 2.82243e-09, No Iterations 2
DILUPBiCG:  Solving for T, Initial residual = 2.60457e-06, Final residual = 3.22059e-10, No Iterations 2
 T goes from min(T) [0 0 0 0 0 0 0] -0.10536 to max(T) [0 0 0 0 0 0 0] 0.606806

ExecutionTime = 83.97 s  ClockTime = 1309 s

Time = 5.98
Courant Number mean: 0.419817 max: 0.909225
DILUPBiCG:  Solving for T, Initial residual = 0.0167821, Final residual = 3.44998e-10, No Iterations 4
DILUPBiCG:  Solving for T, Initial residual = 0.000468864, Final residual = 1.01211e-09, No Iterations 3
DILUPBiCG:  Solving for T, Initial residual = 2.82542e-05, Final residual = 2.79326e-09, No Iterations 2
DILUPBiCG:  Solving for T, Initial residual = 2.57797e-06, Final residual = 3.08718e-10, No Iterations 2
 T goes from min(T) [0 0 0 0 0 0 0] -0.105245 to max(T) [0 0 0 0 0 0 0] 0.606366

ExecutionTime = 84.1 s  ClockTime = 1310 s

Time = 5.99
Courant Number mean: 0.420243 max: 0.90524
DILUPBiCG:  Solving for T, Initial residual = 0.0168711, Final residual = 3.37396e-10, No Iterations 4
DILUPBiCG:  Solving for T, Initial residual = 0.000473614, Final residual = 1.05966e-09, No Iterations 3
DILUPBiCG:  Solving for T, Initial residual = 2.82714e-05, Final residual = 2.78005e-09, No Iterations 2
DILUPBiCG:  Solving for T, Initial residual = 2.57232e-06, Final residual = 2.95413e-10, No Iterations 2
 T goes from min(T) [0 0 0 0 0 0 0] -0.10471 to max(T) [0 0 0 0 0 0 0] 0.606436

ExecutionTime = 84.24 s  ClockTime = 1312 s

Time = 6
Courant Number mean: 0.420634 max: 0.90105
DILUPBiCG:  Solving for T, Initial residual = 0.0169572, Final residual = 3.33235e-10, No Iterations 4
DILUPBiCG:  Solving for T, Initial residual = 0.000476001, Final residual = 1.32174e-09, No Iterations 3
DILUPBiCG:  Solving for T, Initial residual = 2.82594e-05, Final residual = 2.80674e-09, No Iterations 2
DILUPBiCG:  Solving for T, Initial residual = 2.56973e-06, Final residual = 2.81945e-10, No Iterations 2
 T goes from min(T) [0 0 0 0 0 0 0] -0.103806 to max(T) [0 0 0 0 0 0 0] 0.606679

ExecutionTime = 84.38 s  ClockTime = 1314 s

End

