/*---------------------------------------------------------------------------*\
| =========                 |                                                 |
| \\      /  F ield         | OpenFOAM: The Open Source CFD Toolbox           |
|  \\    /   O peration     | Version:  dev                                   |
|   \\  /    A nd           | Web:      www.OpenFOAM.org                      |
|    \\/     M anipulation  |                                                 |
\*---------------------------------------------------------------------------*/
Build  : dev-90f39e0d894d
Exec   : scalarDeformationWithGhosts explicit -case nonOrthogW/120x60/c05_explicit
Date   : May 23 2017
Time   : 20:31:08
Host   : "sws02hw.private.rdg.ac.uk"
PID    : 22884
Case   : nonOrthogW/120x60/c05_explicit
nProcs : 1
sigFpe : Enabling floating point exception trapping (FOAM_SIGFPE).
fileModificationChecking : Monitoring run-time modified files using timeStampMaster (fileModificationSkew 10)
allowSystemOperations : Allowing user-supplied system call operations

// * * * * * * * * * * * * * * * * * * * * * * * * * * * * * * * * * * * * * //
Create time

Create mesh for time = 0

Reading field T

Reading fields phi (compulsory), U and Uf (optional)

Calculating owner stencils
Calculating neighbour stencils

Calculating scalar transport

Courant Number mean: 0.233026 max: 0.482891
Time = 0.005
Courant Number mean: 0.233023 max: 0.483612
diagonal:  Solving for T, Initial residual = 0, Final residual = 0, No Iterations 0
diagonal:  Solving for T, Initial residual = 0, Final residual = 0, No Iterations 0
diagonal:  Solving for T, Initial residual = 0, Final residual = 0, No Iterations 0
diagonal:  Solving for T, Initial residual = 0, Final residual = 0, No Iterations 0
 T goes from min(T) [0 0 0 0 0 0 0] 1.17217e-20 to max(T) [0 0 0 0 0 0 0] 0.952951

ExecutionTime = 2.09 s  ClockTime = 11 s

Time = 0.01
Courant Number mean: 0.233013 max: 0.484303
diagonal:  Solving for T, Initial residual = 0, Final residual = 0, No Iterations 0
diagonal:  Solving for T, Initial residual = 0, Final residual = 0, No Iterations 0
diagonal:  Solving for T, Initial residual = 0, Final residual = 0, No Iterations 0
diagonal:  Solving for T, Initial residual = 0, Final residual = 0, No Iterations 0
 T goes from min(T) [0 0 0 0 0 0 0] 1.06349e-20 to max(T) [0 0 0 0 0 0 0] 0.953347

ExecutionTime = 2.24 s  ClockTime = 12 s

Time = 0.015
Courant Number mean: 0.232994 max: 0.484961
diagonal:  Solving for T, Initial residual = 0, Final residual = 0, No Iterations 0
diagonal:  Solving for T, Initial residual = 0, Final residual = 0, No Iterations 0
diagonal:  Solving for T, Initial residual = 0, Final residual = 0, No Iterations 0
diagonal:  Solving for T, Initial residual = 0, Final residual = 0, No Iterations 0
 T goes from min(T) [0 0 0 0 0 0 0] 1.0148e-20 to max(T) [0 0 0 0 0 0 0] 0.952673

ExecutionTime = 2.37 s  ClockTime = 13 s

Time = 0.02
Courant Number mean: 0.23297 max: 0.485588
diagonal:  Solving for T, Initial residual = 0, Final residual = 0, No Iterations 0
diagonal:  Solving for T, Initial residual = 0, Final residual = 0, No Iterations 0
diagonal:  Solving for T, Initial residual = 0, Final residual = 0, No Iterations 0
diagonal:  Solving for T, Initial residual = 0, Final residual = 0, No Iterations 0
 T goes from min(T) [0 0 0 0 0 0 0] 1.02716e-20 to max(T) [0 0 0 0 0 0 0] 0.951134

ExecutionTime = 2.49 s  ClockTime = 15 s

Time = 0.025
Courant Number mean: 0.23294 max: 0.486183
diagonal:  Solving for T, Initial residual = 0, Final residual = 0, No Iterations 0
diagonal:  Solving for T, Initial residual = 0, Final residual = 0, No Iterations 0
diagonal:  Solving for T, Initial residual = 0, Final residual = 0, No Iterations 0
diagonal:  Solving for T, Initial residual = 0, Final residual = 0, No Iterations 0
 T goes from min(T) [0 0 0 0 0 0 0] 1.10416e-20 to max(T) [0 0 0 0 0 0 0] 0.952437

ExecutionTime = 2.62 s  ClockTime = 16 s

Time = 0.03
Courant Number mean: 0.232902 max: 0.486745
diagonal:  Solving for T, Initial residual = 0, Final residual = 0, No Iterations 0
diagonal:  Solving for T, Initial residual = 0, Final residual = 0, No Iterations 0
diagonal:  Solving for T, Initial residual = 0, Final residual = 0, No Iterations 0
diagonal:  Solving for T, Initial residual = 0, Final residual = 0, No Iterations 0
 T goes from min(T) [0 0 0 0 0 0 0] 1.25202e-20 to max(T) [0 0 0 0 0 0 0] 0.953264

ExecutionTime = 2.74 s  ClockTime = 17 s

Time = 0.035
Courant Number mean: 0.232857 max: 0.487276
diagonal:  Solving for T, Initial residual = 0, Final residual = 0, No Iterations 0
diagonal:  Solving for T, Initial residual = 0, Final residual = 0, No Iterations 0
diagonal:  Solving for T, Initial residual = 0, Final residual = 0, No Iterations 0
diagonal:  Solving for T, Initial residual = 0, Final residual = 0, No Iterations 0
 T goes from min(T) [0 0 0 0 0 0 0] 1.47999e-20 to max(T) [0 0 0 0 0 0 0] 0.953097

ExecutionTime = 2.87 s  ClockTime = 19 s

Time = 0.04
Courant Number mean: 0.232806 max: 0.487774
diagonal:  Solving for T, Initial residual = 0, Final residual = 0, No Iterations 0
diagonal:  Solving for T, Initial residual = 0, Final residual = 0, No Iterations 0
diagonal:  Solving for T, Initial residual = 0, Final residual = 0, No Iterations 0
diagonal:  Solving for T, Initial residual = 0, Final residual = 0, No Iterations 0
 T goes from min(T) [0 0 0 0 0 0 0] 1.41137e-20 to max(T) [0 0 0 0 0 0 0] 0.951976

ExecutionTime = 3 s  ClockTime = 21 s

Time = 0.045
Courant Number mean: 0.232749 max: 0.488366
diagonal:  Solving for T, Initial residual = 0, Final residual = 0, No Iterations 0
diagonal:  Solving for T, Initial residual = 0, Final residual = 0, No Iterations 0
diagonal:  Solving for T, Initial residual = 0, Final residual = 0, No Iterations 0
diagonal:  Solving for T, Initial residual = 0, Final residual = 0, No Iterations 0
 T goes from min(T) [0 0 0 0 0 0 0] 1.31675e-20 to max(T) [0 0 0 0 0 0 0] 0.952073

ExecutionTime = 3.12 s  ClockTime = 22 s

Time = 0.05
Courant Number mean: 0.232683 max: 0.48898
diagonal:  Solving for T, Initial residual = 0, Final residual = 0, No Iterations 0
diagonal:  Solving for T, Initial residual = 0, Final residual = 0, No Iterations 0
diagonal:  Solving for T, Initial residual = 0, Final residual = 0, No Iterations 0
diagonal:  Solving for T, Initial residual = 0, Final residual = 0, No Iterations 0
 T goes from min(T) [0 0 0 0 0 0 0] 1.29343e-20 to max(T) [0 0 0 0 0 0 0] 0.953064

ExecutionTime = 3.24 s  ClockTime = 24 s

Time = 0.055
Courant Number mean: 0.232611 max: 0.489561
diagonal:  Solving for T, Initial residual = 0, Final residual = 0, No Iterations 0
diagonal:  Solving for T, Initial residual = 0, Final residual = 0, No Iterations 0
diagonal:  Solving for T, Initial residual = 0, Final residual = 0, No Iterations 0
diagonal:  Solving for T, Initial residual = 0, Final residual = 0, No Iterations 0
 T goes from min(T) [0 0 0 0 0 0 0] 1.34285e-20 to max(T) [0 0 0 0 0 0 0] 0.952918

ExecutionTime = 3.39 s  ClockTime = 27 s

Time = 0.06
Courant Number mean: 0.232532 max: 0.490175
diagonal:  Solving for T, Initial residual = 0, Final residual = 0, No Iterations 0
diagonal:  Solving for T, Initial residual = 0, Final residual = 0, No Iterations 0
diagonal:  Solving for T, Initial residual = 0, Final residual = 0, No Iterations 0
diagonal:  Solving for T, Initial residual = 0, Final residual = 0, No Iterations 0
 T goes from min(T) [0 0 0 0 0 0 0] 1.46937e-20 to max(T) [0 0 0 0 0 0 0] 0.951597

ExecutionTime = 3.53 s  ClockTime = 29 s

Time = 0.065
Courant Number mean: 0.232448 max: 0.490822
diagonal:  Solving for T, Initial residual = 0, Final residual = 0, No Iterations 0
diagonal:  Solving for T, Initial residual = 0, Final residual = 0, No Iterations 0
diagonal:  Solving for T, Initial residual = 0, Final residual = 0, No Iterations 0
diagonal:  Solving for T, Initial residual = 0, Final residual = 0, No Iterations 0
 T goes from min(T) [0 0 0 0 0 0 0] 1.68523e-20 to max(T) [0 0 0 0 0 0 0] 0.951862

ExecutionTime = 3.67 s  ClockTime = 32 s

Time = 0.07
Courant Number mean: 0.232357 max: 0.491436
diagonal:  Solving for T, Initial residual = 0, Final residual = 0, No Iterations 0
diagonal:  Solving for T, Initial residual = 0, Final residual = 0, No Iterations 0
diagonal:  Solving for T, Initial residual = 0, Final residual = 0, No Iterations 0
diagonal:  Solving for T, Initial residual = 0, Final residual = 0, No Iterations 0
 T goes from min(T) [0 0 0 0 0 0 0] 1.82111e-20 to max(T) [0 0 0 0 0 0 0] 0.952936

ExecutionTime = 3.8 s  ClockTime = 34 s

Time = 0.075
Courant Number mean: 0.232258 max: 0.492019
diagonal:  Solving for T, Initial residual = 0, Final residual = 0, No Iterations 0
diagonal:  Solving for T, Initial residual = 0, Final residual = 0, No Iterations 0
diagonal:  Solving for T, Initial residual = 0, Final residual = 0, No Iterations 0
diagonal:  Solving for T, Initial residual = 0, Final residual = 0, No Iterations 0
 T goes from min(T) [0 0 0 0 0 0 0] 1.63367e-20 to max(T) [0 0 0 0 0 0 0] 0.952929

ExecutionTime = 3.93 s  ClockTime = 37 s

Time = 0.08
Courant Number mean: 0.232153 max: 0.492569
diagonal:  Solving for T, Initial residual = 0, Final residual = 0, No Iterations 0
diagonal:  Solving for T, Initial residual = 0, Final residual = 0, No Iterations 0
diagonal:  Solving for T, Initial residual = 0, Final residual = 0, No Iterations 0
diagonal:  Solving for T, Initial residual = 0, Final residual = 0, No Iterations 0
 T goes from min(T) [0 0 0 0 0 0 0] 1.51693e-20 to max(T) [0 0 0 0 0 0 0] 0.951829

ExecutionTime = 4.08 s  ClockTime = 40 s

Time = 0.085
Courant Number mean: 0.23204 max: 0.493086
diagonal:  Solving for T, Initial residual = 0, Final residual = 0, No Iterations 0
diagonal:  Solving for T, Initial residual = 0, Final residual = 0, No Iterations 0
diagonal:  Solving for T, Initial residual = 0, Final residual = 0, No Iterations 0
diagonal:  Solving for T, Initial residual = 0, Final residual = 0, No Iterations 0
 T goes from min(T) [0 0 0 0 0 0 0] 1.49872e-20 to max(T) [0 0 0 0 0 0 0] 0.95161

ExecutionTime = 4.22 s  ClockTime = 43 s

Time = 0.09
Courant Number mean: 0.231921 max: 0.493694
diagonal:  Solving for T, Initial residual = 0, Final residual = 0, No Iterations 0
diagonal:  Solving for T, Initial residual = 0, Final residual = 0, No Iterations 0
diagonal:  Solving for T, Initial residual = 0, Final residual = 0, No Iterations 0
diagonal:  Solving for T, Initial residual = 0, Final residual = 0, No Iterations 0
 T goes from min(T) [0 0 0 0 0 0 0] 1.65434e-20 to max(T) [0 0 0 0 0 0 0] 0.952649

ExecutionTime = 4.35 s  ClockTime = 45 s

Time = 0.095
Courant Number mean: 0.231795 max: 0.494332
diagonal:  Solving for T, Initial residual = 0, Final residual = 0, No Iterations 0
diagonal:  Solving for T, Initial residual = 0, Final residual = 0, No Iterations 0
diagonal:  Solving for T, Initial residual = 0, Final residual = 0, No Iterations 0
diagonal:  Solving for T, Initial residual = 0, Final residual = 0, No Iterations 0
 T goes from min(T) [0 0 0 0 0 0 0] 2.12371e-20 to max(T) [0 0 0 0 0 0 0] 0.952832

ExecutionTime = 4.48 s  ClockTime = 48 s

Time = 0.1
Courant Number mean: 0.231662 max: 0.494937
diagonal:  Solving for T, Initial residual = 0, Final residual = 0, No Iterations 0
diagonal:  Solving for T, Initial residual = 0, Final residual = 0, No Iterations 0
diagonal:  Solving for T, Initial residual = 0, Final residual = 0, No Iterations 0
diagonal:  Solving for T, Initial residual = 0, Final residual = 0, No Iterations 0
 T goes from min(T) [0 0 0 0 0 0 0] 2.15416e-20 to max(T) [0 0 0 0 0 0 0] 0.952588

ExecutionTime = 4.61 s  ClockTime = 50 s

Time = 0.105
Courant Number mean: 0.231522 max: 0.49551
diagonal:  Solving for T, Initial residual = 0, Final residual = 0, No Iterations 0
diagonal:  Solving for T, Initial residual = 0, Final residual = 0, No Iterations 0
diagonal:  Solving for T, Initial residual = 0, Final residual = 0, No Iterations 0
diagonal:  Solving for T, Initial residual = 0, Final residual = 0, No Iterations 0
 T goes from min(T) [0 0 0 0 0 0 0] 1.91144e-20 to max(T) [0 0 0 0 0 0 0] 0.951081

ExecutionTime = 4.75 s  ClockTime = 52 s

Time = 0.11
Courant Number mean: 0.231377 max: 0.49605
diagonal:  Solving for T, Initial residual = 0, Final residual = 0, No Iterations 0
diagonal:  Solving for T, Initial residual = 0, Final residual = 0, No Iterations 0
diagonal:  Solving for T, Initial residual = 0, Final residual = 0, No Iterations 0
diagonal:  Solving for T, Initial residual = 0, Final residual = 0, No Iterations 0
 T goes from min(T) [0 0 0 0 0 0 0] 1.72083e-20 to max(T) [0 0 0 0 0 0 0] 0.951586

ExecutionTime = 4.87 s  ClockTime = 55 s

Time = 0.115
Courant Number mean: 0.231224 max: 0.496556
diagonal:  Solving for T, Initial residual = 0, Final residual = 0, No Iterations 0
diagonal:  Solving for T, Initial residual = 0, Final residual = 0, No Iterations 0
diagonal:  Solving for T, Initial residual = 0, Final residual = 0, No Iterations 0
diagonal:  Solving for T, Initial residual = 0, Final residual = 0, No Iterations 0
 T goes from min(T) [0 0 0 0 0 0 0] -6.10178e-20 to max(T) [0 0 0 0 0 0 0] 0.953082

ExecutionTime = 5.02 s  ClockTime = 57 s

Time = 0.12
Courant Number mean: 0.231064 max: 0.49703
diagonal:  Solving for T, Initial residual = 0, Final residual = 0, No Iterations 0
diagonal:  Solving for T, Initial residual = 0, Final residual = 0, No Iterations 0
diagonal:  Solving for T, Initial residual = 0, Final residual = 0, No Iterations 0
diagonal:  Solving for T, Initial residual = 0, Final residual = 0, No Iterations 0
 T goes from min(T) [0 0 0 0 0 0 0] -1.38983e-17 to max(T) [0 0 0 0 0 0 0] 0.953313

ExecutionTime = 5.14 s  ClockTime = 60 s

Time = 0.125
Courant Number mean: 0.230897 max: 0.49747
diagonal:  Solving for T, Initial residual = 0, Final residual = 0, No Iterations 0
diagonal:  Solving for T, Initial residual = 0, Final residual = 0, No Iterations 0
diagonal:  Solving for T, Initial residual = 0, Final residual = 0, No Iterations 0
diagonal:  Solving for T, Initial residual = 0, Final residual = 0, No Iterations 0
 T goes from min(T) [0 0 0 0 0 0 0] -4.07861e-17 to max(T) [0 0 0 0 0 0 0] 0.952349

ExecutionTime = 5.27 s  ClockTime = 62 s

Time = 0.13
Courant Number mean: 0.230724 max: 0.497877
diagonal:  Solving for T, Initial residual = 0, Final residual = 0, No Iterations 0
diagonal:  Solving for T, Initial residual = 0, Final residual = 0, No Iterations 0
diagonal:  Solving for T, Initial residual = 0, Final residual = 0, No Iterations 0
diagonal:  Solving for T, Initial residual = 0, Final residual = 0, No Iterations 0
 T goes from min(T) [0 0 0 0 0 0 0] -3.40058e-16 to max(T) [0 0 0 0 0 0 0] 0.953329

ExecutionTime = 5.4 s  ClockTime = 65 s

Time = 0.135
Courant Number mean: 0.230543 max: 0.49825
diagonal:  Solving for T, Initial residual = 0, Final residual = 0, No Iterations 0
diagonal:  Solving for T, Initial residual = 0, Final residual = 0, No Iterations 0
diagonal:  Solving for T, Initial residual = 0, Final residual = 0, No Iterations 0
diagonal:  Solving for T, Initial residual = 0, Final residual = 0, No Iterations 0
 T goes from min(T) [0 0 0 0 0 0 0] -1.46535e-15 to max(T) [0 0 0 0 0 0 0] 0.953487

ExecutionTime = 5.52 s  ClockTime = 67 s

Time = 0.14
Courant Number mean: 0.230357 max: 0.498825
diagonal:  Solving for T, Initial residual = 0, Final residual = 0, No Iterations 0
diagonal:  Solving for T, Initial residual = 0, Final residual = 0, No Iterations 0
diagonal:  Solving for T, Initial residual = 0, Final residual = 0, No Iterations 0
diagonal:  Solving for T, Initial residual = 0, Final residual = 0, No Iterations 0
 T goes from min(T) [0 0 0 0 0 0 0] -4.90903e-15 to max(T) [0 0 0 0 0 0 0] 0.952861

ExecutionTime = 5.66 s  ClockTime = 70 s

Time = 0.145
Courant Number mean: 0.230166 max: 0.49945
diagonal:  Solving for T, Initial residual = 0, Final residual = 0, No Iterations 0
diagonal:  Solving for T, Initial residual = 0, Final residual = 0, No Iterations 0
diagonal:  Solving for T, Initial residual = 0, Final residual = 0, No Iterations 0
diagonal:  Solving for T, Initial residual = 0, Final residual = 0, No Iterations 0
 T goes from min(T) [0 0 0 0 0 0 0] -7.22367e-15 to max(T) [0 0 0 0 0 0 0] 0.952627

ExecutionTime = 5.79 s  ClockTime = 72 s

Time = 0.15
Courant Number mean: 0.229968 max: 0.500042
diagonal:  Solving for T, Initial residual = 0, Final residual = 0, No Iterations 0
diagonal:  Solving for T, Initial residual = 0, Final residual = 0, No Iterations 0
diagonal:  Solving for T, Initial residual = 0, Final residual = 0, No Iterations 0
diagonal:  Solving for T, Initial residual = 0, Final residual = 0, No Iterations 0
 T goes from min(T) [0 0 0 0 0 0 0] -1.22682e-14 to max(T) [0 0 0 0 0 0 0] 0.95177

ExecutionTime = 5.92 s  ClockTime = 75 s

Time = 0.155
Courant Number mean: 0.229761 max: 0.500602
diagonal:  Solving for T, Initial residual = 0, Final residual = 0, No Iterations 0
diagonal:  Solving for T, Initial residual = 0, Final residual = 0, No Iterations 0
diagonal:  Solving for T, Initial residual = 0, Final residual = 0, No Iterations 0
diagonal:  Solving for T, Initial residual = 0, Final residual = 0, No Iterations 0
 T goes from min(T) [0 0 0 0 0 0 0] -1.49096e-14 to max(T) [0 0 0 0 0 0 0] 0.949554

ExecutionTime = 6.05 s  ClockTime = 77 s

Time = 0.16
Courant Number mean: 0.229548 max: 0.501127
diagonal:  Solving for T, Initial residual = 0, Final residual = 0, No Iterations 0
diagonal:  Solving for T, Initial residual = 0, Final residual = 0, No Iterations 0
diagonal:  Solving for T, Initial residual = 0, Final residual = 0, No Iterations 0
diagonal:  Solving for T, Initial residual = 0, Final residual = 0, No Iterations 0
 T goes from min(T) [0 0 0 0 0 0 0] -3.62757e-14 to max(T) [0 0 0 0 0 0 0] 0.951748

ExecutionTime = 6.17 s  ClockTime = 79 s

Time = 0.165
Courant Number mean: 0.229329 max: 0.50162
diagonal:  Solving for T, Initial residual = 0, Final residual = 0, No Iterations 0
diagonal:  Solving for T, Initial residual = 0, Final residual = 0, No Iterations 0
diagonal:  Solving for T, Initial residual = 0, Final residual = 0, No Iterations 0
diagonal:  Solving for T, Initial residual = 0, Final residual = 0, No Iterations 0
 T goes from min(T) [0 0 0 0 0 0 0] -7.01519e-14 to max(T) [0 0 0 0 0 0 0] 0.95325

ExecutionTime = 6.3 s  ClockTime = 82 s

Time = 0.17
Courant Number mean: 0.22911 max: 0.502079
diagonal:  Solving for T, Initial residual = 0, Final residual = 0, No Iterations 0
diagonal:  Solving for T, Initial residual = 0, Final residual = 0, No Iterations 0
diagonal:  Solving for T, Initial residual = 0, Final residual = 0, No Iterations 0
diagonal:  Solving for T, Initial residual = 0, Final residual = 0, No Iterations 0
 T goes from min(T) [0 0 0 0 0 0 0] -1.82115e-13 to max(T) [0 0 0 0 0 0 0] 0.953473

ExecutionTime = 6.42 s  ClockTime = 84 s

Time = 0.175
Courant Number mean: 0.228888 max: 0.502505
diagonal:  Solving for T, Initial residual = 0, Final residual = 0, No Iterations 0
diagonal:  Solving for T, Initial residual = 0, Final residual = 0, No Iterations 0
diagonal:  Solving for T, Initial residual = 0, Final residual = 0, No Iterations 0
diagonal:  Solving for T, Initial residual = 0, Final residual = 0, No Iterations 0
 T goes from min(T) [0 0 0 0 0 0 0] -1.93876e-13 to max(T) [0 0 0 0 0 0 0] 0.953652

ExecutionTime = 6.56 s  ClockTime = 87 s

Time = 0.18
Courant Number mean: 0.228661 max: 0.502898
diagonal:  Solving for T, Initial residual = 0, Final residual = 0, No Iterations 0
diagonal:  Solving for T, Initial residual = 0, Final residual = 0, No Iterations 0
diagonal:  Solving for T, Initial residual = 0, Final residual = 0, No Iterations 0
diagonal:  Solving for T, Initial residual = 0, Final residual = 0, No Iterations 0
 T goes from min(T) [0 0 0 0 0 0 0] -3.21692e-13 to max(T) [0 0 0 0 0 0 0] 0.953124

ExecutionTime = 6.68 s  ClockTime = 89 s

Time = 0.185
Courant Number mean: 0.228427 max: 0.503257
diagonal:  Solving for T, Initial residual = 0, Final residual = 0, No Iterations 0
diagonal:  Solving for T, Initial residual = 0, Final residual = 0, No Iterations 0
diagonal:  Solving for T, Initial residual = 0, Final residual = 0, No Iterations 0
diagonal:  Solving for T, Initial residual = 0, Final residual = 0, No Iterations 0
 T goes from min(T) [0 0 0 0 0 0 0] -4.43392e-13 to max(T) [0 0 0 0 0 0 0] 0.951923

ExecutionTime = 6.8 s  ClockTime = 92 s

Time = 0.19
Courant Number mean: 0.22819 max: 0.503582
diagonal:  Solving for T, Initial residual = 0, Final residual = 0, No Iterations 0
diagonal:  Solving for T, Initial residual = 0, Final residual = 0, No Iterations 0
diagonal:  Solving for T, Initial residual = 0, Final residual = 0, No Iterations 0
diagonal:  Solving for T, Initial residual = 0, Final residual = 0, No Iterations 0
 T goes from min(T) [0 0 0 0 0 0 0] -4.43397e-13 to max(T) [0 0 0 0 0 0 0] 0.951276

ExecutionTime = 6.93 s  ClockTime = 94 s

Time = 0.195
Courant Number mean: 0.227948 max: 0.503874
diagonal:  Solving for T, Initial residual = 0, Final residual = 0, No Iterations 0
diagonal:  Solving for T, Initial residual = 0, Final residual = 0, No Iterations 0
diagonal:  Solving for T, Initial residual = 0, Final residual = 0, No Iterations 0
diagonal:  Solving for T, Initial residual = 0, Final residual = 0, No Iterations 0
 T goes from min(T) [0 0 0 0 0 0 0] -6.22156e-13 to max(T) [0 0 0 0 0 0 0] 0.952362

ExecutionTime = 7.05 s  ClockTime = 96 s

Time = 0.2
Courant Number mean: 0.2277 max: 0.504261
diagonal:  Solving for T, Initial residual = 0, Final residual = 0, No Iterations 0
diagonal:  Solving for T, Initial residual = 0, Final residual = 0, No Iterations 0
diagonal:  Solving for T, Initial residual = 0, Final residual = 0, No Iterations 0
diagonal:  Solving for T, Initial residual = 0, Final residual = 0, No Iterations 0
 T goes from min(T) [0 0 0 0 0 0 0] -6.97091e-13 to max(T) [0 0 0 0 0 0 0] 0.952055

ExecutionTime = 7.18 s  ClockTime = 99 s

Time = 0.205
Courant Number mean: 0.227446 max: 0.504802
diagonal:  Solving for T, Initial residual = 0, Final residual = 0, No Iterations 0
diagonal:  Solving for T, Initial residual = 0, Final residual = 0, No Iterations 0
diagonal:  Solving for T, Initial residual = 0, Final residual = 0, No Iterations 0
diagonal:  Solving for T, Initial residual = 0, Final residual = 0, No Iterations 0
 T goes from min(T) [0 0 0 0 0 0 0] -9.30421e-13 to max(T) [0 0 0 0 0 0 0] 0.950378

ExecutionTime = 7.3 s  ClockTime = 101 s

Time = 0.21
Courant Number mean: 0.227187 max: 0.505309
diagonal:  Solving for T, Initial residual = 0, Final residual = 0, No Iterations 0
diagonal:  Solving for T, Initial residual = 0, Final residual = 0, No Iterations 0
diagonal:  Solving for T, Initial residual = 0, Final residual = 0, No Iterations 0
diagonal:  Solving for T, Initial residual = 0, Final residual = 0, No Iterations 0
 T goes from min(T) [0 0 0 0 0 0 0] -1.03783e-12 to max(T) [0 0 0 0 0 0 0] 0.951349

ExecutionTime = 7.44 s  ClockTime = 104 s

Time = 0.215
Courant Number mean: 0.22693 max: 0.505783
diagonal:  Solving for T, Initial residual = 0, Final residual = 0, No Iterations 0
diagonal:  Solving for T, Initial residual = 0, Final residual = 0, No Iterations 0
diagonal:  Solving for T, Initial residual = 0, Final residual = 0, No Iterations 0
diagonal:  Solving for T, Initial residual = 0, Final residual = 0, No Iterations 0
 T goes from min(T) [0 0 0 0 0 0 0] -1.03082e-12 to max(T) [0 0 0 0 0 0 0] 0.951649

ExecutionTime = 7.57 s  ClockTime = 106 s

Time = 0.22
Courant Number mean: 0.226672 max: 0.506224
diagonal:  Solving for T, Initial residual = 0, Final residual = 0, No Iterations 0
diagonal:  Solving for T, Initial residual = 0, Final residual = 0, No Iterations 0
diagonal:  Solving for T, Initial residual = 0, Final residual = 0, No Iterations 0
diagonal:  Solving for T, Initial residual = 0, Final residual = 0, No Iterations 0
 T goes from min(T) [0 0 0 0 0 0 0] -1.21317e-12 to max(T) [0 0 0 0 0 0 0] 0.953155

ExecutionTime = 7.68 s  ClockTime = 108 s

Time = 0.225
Courant Number mean: 0.226411 max: 0.506632
diagonal:  Solving for T, Initial residual = 0, Final residual = 0, No Iterations 0
diagonal:  Solving for T, Initial residual = 0, Final residual = 0, No Iterations 0
diagonal:  Solving for T, Initial residual = 0, Final residual = 0, No Iterations 0
diagonal:  Solving for T, Initial residual = 0, Final residual = 0, No Iterations 0
 T goes from min(T) [0 0 0 0 0 0 0] -1.76435e-12 to max(T) [0 0 0 0 0 0 0] 0.953298

ExecutionTime = 7.8 s  ClockTime = 110 s

Time = 0.23
Courant Number mean: 0.226145 max: 0.507005
diagonal:  Solving for T, Initial residual = 0, Final residual = 0, No Iterations 0
diagonal:  Solving for T, Initial residual = 0, Final residual = 0, No Iterations 0
diagonal:  Solving for T, Initial residual = 0, Final residual = 0, No Iterations 0
diagonal:  Solving for T, Initial residual = 0, Final residual = 0, No Iterations 0
 T goes from min(T) [0 0 0 0 0 0 0] -2.30182e-12 to max(T) [0 0 0 0 0 0 0] 0.952862

ExecutionTime = 7.92 s  ClockTime = 113 s

Time = 0.235
Courant Number mean: 0.225874 max: 0.507346
diagonal:  Solving for T, Initial residual = 0, Final residual = 0, No Iterations 0
diagonal:  Solving for T, Initial residual = 0, Final residual = 0, No Iterations 0
diagonal:  Solving for T, Initial residual = 0, Final residual = 0, No Iterations 0
diagonal:  Solving for T, Initial residual = 0, Final residual = 0, No Iterations 0
 T goes from min(T) [0 0 0 0 0 0 0] -2.33474e-12 to max(T) [0 0 0 0 0 0 0] 0.953118

ExecutionTime = 8.04 s  ClockTime = 115 s

Time = 0.24
Courant Number mean: 0.225598 max: 0.507652
diagonal:  Solving for T, Initial residual = 0, Final residual = 0, No Iterations 0
diagonal:  Solving for T, Initial residual = 0, Final residual = 0, No Iterations 0
diagonal:  Solving for T, Initial residual = 0, Final residual = 0, No Iterations 0
diagonal:  Solving for T, Initial residual = 0, Final residual = 0, No Iterations 0
 T goes from min(T) [0 0 0 0 0 0 0] -2.61717e-12 to max(T) [0 0 0 0 0 0 0] 0.952752

ExecutionTime = 8.17 s  ClockTime = 118 s

Time = 0.245
Courant Number mean: 0.225317 max: 0.507925
diagonal:  Solving for T, Initial residual = 0, Final residual = 0, No Iterations 0
diagonal:  Solving for T, Initial residual = 0, Final residual = 0, No Iterations 0
diagonal:  Solving for T, Initial residual = 0, Final residual = 0, No Iterations 0
diagonal:  Solving for T, Initial residual = 0, Final residual = 0, No Iterations 0
 T goes from min(T) [0 0 0 0 0 0 0] -3.3542e-12 to max(T) [0 0 0 0 0 0 0] 0.951797

ExecutionTime = 8.3 s  ClockTime = 120 s

Time = 0.25
Courant Number mean: 0.225031 max: 0.508317
diagonal:  Solving for T, Initial residual = 0, Final residual = 0, No Iterations 0
diagonal:  Solving for T, Initial residual = 0, Final residual = 0, No Iterations 0
diagonal:  Solving for T, Initial residual = 0, Final residual = 0, No Iterations 0
diagonal:  Solving for T, Initial residual = 0, Final residual = 0, No Iterations 0
 T goes from min(T) [0 0 0 0 0 0 0] -3.54336e-12 to max(T) [0 0 0 0 0 0 0] 0.951571

ExecutionTime = 8.43 s  ClockTime = 123 s

Time = 0.255
Courant Number mean: 0.224743 max: 0.508722
diagonal:  Solving for T, Initial residual = 0, Final residual = 0, No Iterations 0
diagonal:  Solving for T, Initial residual = 0, Final residual = 0, No Iterations 0
diagonal:  Solving for T, Initial residual = 0, Final residual = 0, No Iterations 0
diagonal:  Solving for T, Initial residual = 0, Final residual = 0, No Iterations 0
 T goes from min(T) [0 0 0 0 0 0 0] -3.06966e-12 to max(T) [0 0 0 0 0 0 0] 0.952194

ExecutionTime = 8.58 s  ClockTime = 126 s

Time = 0.26
Courant Number mean: 0.224457 max: 0.509093
diagonal:  Solving for T, Initial residual = 0, Final residual = 0, No Iterations 0
diagonal:  Solving for T, Initial residual = 0, Final residual = 0, No Iterations 0
diagonal:  Solving for T, Initial residual = 0, Final residual = 0, No Iterations 0
diagonal:  Solving for T, Initial residual = 0, Final residual = 0, No Iterations 0
 T goes from min(T) [0 0 0 0 0 0 0] -3.45271e-12 to max(T) [0 0 0 0 0 0 0] 0.951347

ExecutionTime = 8.71 s  ClockTime = 129 s

Time = 0.265
Courant Number mean: 0.224168 max: 0.509429
diagonal:  Solving for T, Initial residual = 0, Final residual = 0, No Iterations 0
diagonal:  Solving for T, Initial residual = 0, Final residual = 0, No Iterations 0
diagonal:  Solving for T, Initial residual = 0, Final residual = 0, No Iterations 0
diagonal:  Solving for T, Initial residual = 0, Final residual = 0, No Iterations 0
 T goes from min(T) [0 0 0 0 0 0 0] -3.59546e-12 to max(T) [0 0 0 0 0 0 0] 0.949008

ExecutionTime = 8.87 s  ClockTime = 132 s

Time = 0.27
Courant Number mean: 0.223877 max: 0.509732
diagonal:  Solving for T, Initial residual = 0, Final residual = 0, No Iterations 0
diagonal:  Solving for T, Initial residual = 0, Final residual = 0, No Iterations 0
diagonal:  Solving for T, Initial residual = 0, Final residual = 0, No Iterations 0
diagonal:  Solving for T, Initial residual = 0, Final residual = 0, No Iterations 0
 T goes from min(T) [0 0 0 0 0 0 0] -4.7699e-12 to max(T) [0 0 0 0 0 0 0] 0.949889

ExecutionTime = 9 s  ClockTime = 135 s

Time = 0.275
Courant Number mean: 0.223581 max: 0.51
diagonal:  Solving for T, Initial residual = 0, Final residual = 0, No Iterations 0
diagonal:  Solving for T, Initial residual = 0, Final residual = 0, No Iterations 0
diagonal:  Solving for T, Initial residual = 0, Final residual = 0, No Iterations 0
diagonal:  Solving for T, Initial residual = 0, Final residual = 0, No Iterations 0
 T goes from min(T) [0 0 0 0 0 0 0] -5.57836e-12 to max(T) [0 0 0 0 0 0 0] 0.950599

ExecutionTime = 9.13 s  ClockTime = 137 s

Time = 0.28
Courant Number mean: 0.22328 max: 0.510234
diagonal:  Solving for T, Initial residual = 0, Final residual = 0, No Iterations 0
diagonal:  Solving for T, Initial residual = 0, Final residual = 0, No Iterations 0
diagonal:  Solving for T, Initial residual = 0, Final residual = 0, No Iterations 0
diagonal:  Solving for T, Initial residual = 0, Final residual = 0, No Iterations 0
 T goes from min(T) [0 0 0 0 0 0 0] -5.73591e-12 to max(T) [0 0 0 0 0 0 0] 0.952122

ExecutionTime = 9.26 s  ClockTime = 140 s

Time = 0.285
Courant Number mean: 0.222974 max: 0.51049
diagonal:  Solving for T, Initial residual = 0, Final residual = 0, No Iterations 0
diagonal:  Solving for T, Initial residual = 0, Final residual = 0, No Iterations 0
diagonal:  Solving for T, Initial residual = 0, Final residual = 0, No Iterations 0
diagonal:  Solving for T, Initial residual = 0, Final residual = 0, No Iterations 0
 T goes from min(T) [0 0 0 0 0 0 0] -4.92873e-12 to max(T) [0 0 0 0 0 0 0] 0.952961

ExecutionTime = 9.39 s  ClockTime = 142 s

Time = 0.29
Courant Number mean: 0.222665 max: 0.510774
diagonal:  Solving for T, Initial residual = 0, Final residual = 0, No Iterations 0
diagonal:  Solving for T, Initial residual = 0, Final residual = 0, No Iterations 0
diagonal:  Solving for T, Initial residual = 0, Final residual = 0, No Iterations 0
diagonal:  Solving for T, Initial residual = 0, Final residual = 0, No Iterations 0
 T goes from min(T) [0 0 0 0 0 0 0] -4.19065e-12 to max(T) [0 0 0 0 0 0 0] 0.952334

ExecutionTime = 9.51 s  ClockTime = 144 s

Time = 0.295
Courant Number mean: 0.22235 max: 0.511134
diagonal:  Solving for T, Initial residual = 0, Final residual = 0, No Iterations 0
diagonal:  Solving for T, Initial residual = 0, Final residual = 0, No Iterations 0
diagonal:  Solving for T, Initial residual = 0, Final residual = 0, No Iterations 0
diagonal:  Solving for T, Initial residual = 0, Final residual = 0, No Iterations 0
 T goes from min(T) [0 0 0 0 0 0 0] -4.90289e-12 to max(T) [0 0 0 0 0 0 0] 0.952372

ExecutionTime = 9.64 s  ClockTime = 147 s

Time = 0.3
Courant Number mean: 0.222038 max: 0.511553
diagonal:  Solving for T, Initial residual = 0, Final residual = 0, No Iterations 0
diagonal:  Solving for T, Initial residual = 0, Final residual = 0, No Iterations 0
diagonal:  Solving for T, Initial residual = 0, Final residual = 0, No Iterations 0
diagonal:  Solving for T, Initial residual = 0, Final residual = 0, No Iterations 0
 T goes from min(T) [0 0 0 0 0 0 0] -6.18676e-12 to max(T) [0 0 0 0 0 0 0] 0.952615

ExecutionTime = 9.76 s  ClockTime = 149 s

Time = 0.305
Courant Number mean: 0.221727 max: 0.511938
diagonal:  Solving for T, Initial residual = 0, Final residual = 0, No Iterations 0
diagonal:  Solving for T, Initial residual = 0, Final residual = 0, No Iterations 0
diagonal:  Solving for T, Initial residual = 0, Final residual = 0, No Iterations 0
diagonal:  Solving for T, Initial residual = 0, Final residual = 0, No Iterations 0
 T goes from min(T) [0 0 0 0 0 0 0] -7.91572e-12 to max(T) [0 0 0 0 0 0 0] 0.952326

ExecutionTime = 9.9 s  ClockTime = 152 s

Time = 0.31
Courant Number mean: 0.221414 max: 0.512289
diagonal:  Solving for T, Initial residual = 0, Final residual = 0, No Iterations 0
diagonal:  Solving for T, Initial residual = 0, Final residual = 0, No Iterations 0
diagonal:  Solving for T, Initial residual = 0, Final residual = 0, No Iterations 0
diagonal:  Solving for T, Initial residual = 0, Final residual = 0, No Iterations 0
 T goes from min(T) [0 0 0 0 0 0 0] -1.54356e-11 to max(T) [0 0 0 0 0 0 0] 0.951534

ExecutionTime = 10.05 s  ClockTime = 156 s

Time = 0.315
Courant Number mean: 0.221097 max: 0.512606
diagonal:  Solving for T, Initial residual = 0, Final residual = 0, No Iterations 0
diagonal:  Solving for T, Initial residual = 0, Final residual = 0, No Iterations 0
diagonal:  Solving for T, Initial residual = 0, Final residual = 0, No Iterations 0
diagonal:  Solving for T, Initial residual = 0, Final residual = 0, No Iterations 0
 T goes from min(T) [0 0 0 0 0 0 0] -2.46671e-11 to max(T) [0 0 0 0 0 0 0] 0.950433

ExecutionTime = 10.18 s  ClockTime = 159 s

Time = 0.32
Courant Number mean: 0.220777 max: 0.512889
diagonal:  Solving for T, Initial residual = 0, Final residual = 0, No Iterations 0
diagonal:  Solving for T, Initial residual = 0, Final residual = 0, No Iterations 0
diagonal:  Solving for T, Initial residual = 0, Final residual = 0, No Iterations 0
diagonal:  Solving for T, Initial residual = 0, Final residual = 0, No Iterations 0
 T goes from min(T) [0 0 0 0 0 0 0] -1.06266e-10 to max(T) [0 0 0 0 0 0 0] 0.951526

ExecutionTime = 10.32 s  ClockTime = 164 s

Time = 0.325
Courant Number mean: 0.220454 max: 0.513137
diagonal:  Solving for T, Initial residual = 0, Final residual = 0, No Iterations 0
diagonal:  Solving for T, Initial residual = 0, Final residual = 0, No Iterations 0
diagonal:  Solving for T, Initial residual = 0, Final residual = 0, No Iterations 0
diagonal:  Solving for T, Initial residual = 0, Final residual = 0, No Iterations 0
 T goes from min(T) [0 0 0 0 0 0 0] -1.8142e-10 to max(T) [0 0 0 0 0 0 0] 0.951249

ExecutionTime = 10.46 s  ClockTime = 167 s

Time = 0.33
Courant Number mean: 0.220126 max: 0.513352
diagonal:  Solving for T, Initial residual = 0, Final residual = 0, No Iterations 0
diagonal:  Solving for T, Initial residual = 0, Final residual = 0, No Iterations 0
diagonal:  Solving for T, Initial residual = 0, Final residual = 0, No Iterations 0
diagonal:  Solving for T, Initial residual = 0, Final residual = 0, No Iterations 0
 T goes from min(T) [0 0 0 0 0 0 0] -2.50849e-10 to max(T) [0 0 0 0 0 0 0] 0.949943

ExecutionTime = 10.61 s  ClockTime = 170 s

Time = 0.335
Courant Number mean: 0.219792 max: 0.513533
diagonal:  Solving for T, Initial residual = 0, Final residual = 0, No Iterations 0
diagonal:  Solving for T, Initial residual = 0, Final residual = 0, No Iterations 0
diagonal:  Solving for T, Initial residual = 0, Final residual = 0, No Iterations 0
diagonal:  Solving for T, Initial residual = 0, Final residual = 0, No Iterations 0
 T goes from min(T) [0 0 0 0 0 0 0] -3.15186e-10 to max(T) [0 0 0 0 0 0 0] 0.948813

ExecutionTime = 10.74 s  ClockTime = 173 s

Time = 0.34
Courant Number mean: 0.219457 max: 0.513679
diagonal:  Solving for T, Initial residual = 0, Final residual = 0, No Iterations 0
diagonal:  Solving for T, Initial residual = 0, Final residual = 0, No Iterations 0
diagonal:  Solving for T, Initial residual = 0, Final residual = 0, No Iterations 0
diagonal:  Solving for T, Initial residual = 0, Final residual = 0, No Iterations 0
 T goes from min(T) [0 0 0 0 0 0 0] -3.7499e-10 to max(T) [0 0 0 0 0 0 0] 0.947248

ExecutionTime = 10.87 s  ClockTime = 176 s

Time = 0.345
Courant Number mean: 0.219127 max: 0.513791
diagonal:  Solving for T, Initial residual = 0, Final residual = 0, No Iterations 0
diagonal:  Solving for T, Initial residual = 0, Final residual = 0, No Iterations 0
diagonal:  Solving for T, Initial residual = 0, Final residual = 0, No Iterations 0
diagonal:  Solving for T, Initial residual = 0, Final residual = 0, No Iterations 0
 T goes from min(T) [0 0 0 0 0 0 0] -1.26626e-09 to max(T) [0 0 0 0 0 0 0] 0.947087

ExecutionTime = 11 s  ClockTime = 178 s

Time = 0.35
Courant Number mean: 0.218794 max: 0.513869
diagonal:  Solving for T, Initial residual = 0, Final residual = 0, No Iterations 0
diagonal:  Solving for T, Initial residual = 0, Final residual = 0, No Iterations 0
diagonal:  Solving for T, Initial residual = 0, Final residual = 0, No Iterations 0
diagonal:  Solving for T, Initial residual = 0, Final residual = 0, No Iterations 0
 T goes from min(T) [0 0 0 0 0 0 0] -2.66997e-09 to max(T) [0 0 0 0 0 0 0] 0.949465

ExecutionTime = 11.14 s  ClockTime = 181 s

Time = 0.355
Courant Number mean: 0.218458 max: 0.514184
diagonal:  Solving for T, Initial residual = 0, Final residual = 0, No Iterations 0
diagonal:  Solving for T, Initial residual = 0, Final residual = 0, No Iterations 0
diagonal:  Solving for T, Initial residual = 0, Final residual = 0, No Iterations 0
diagonal:  Solving for T, Initial residual = 0, Final residual = 0, No Iterations 0
 T goes from min(T) [0 0 0 0 0 0 0] -3.99024e-09 to max(T) [0 0 0 0 0 0 0] 0.951256

ExecutionTime = 11.27 s  ClockTime = 184 s

Time = 0.36
Courant Number mean: 0.218121 max: 0.514511
diagonal:  Solving for T, Initial residual = 0, Final residual = 0, No Iterations 0
diagonal:  Solving for T, Initial residual = 0, Final residual = 0, No Iterations 0
diagonal:  Solving for T, Initial residual = 0, Final residual = 0, No Iterations 0
diagonal:  Solving for T, Initial residual = 0, Final residual = 0, No Iterations 0
 T goes from min(T) [0 0 0 0 0 0 0] -5.23418e-09 to max(T) [0 0 0 0 0 0 0] 0.951602

ExecutionTime = 11.43 s  ClockTime = 187 s

Time = 0.365
Courant Number mean: 0.217778 max: 0.514805
diagonal:  Solving for T, Initial residual = 0, Final residual = 0, No Iterations 0
diagonal:  Solving for T, Initial residual = 0, Final residual = 0, No Iterations 0
diagonal:  Solving for T, Initial residual = 0, Final residual = 0, No Iterations 0
diagonal:  Solving for T, Initial residual = 0, Final residual = 0, No Iterations 0
 T goes from min(T) [0 0 0 0 0 0 0] -6.4082e-09 to max(T) [0 0 0 0 0 0 0] 0.950486

ExecutionTime = 11.55 s  ClockTime = 190 s

Time = 0.37
Courant Number mean: 0.217432 max: 0.515064
diagonal:  Solving for T, Initial residual = 0, Final residual = 0, No Iterations 0
diagonal:  Solving for T, Initial residual = 0, Final residual = 0, No Iterations 0
diagonal:  Solving for T, Initial residual = 0, Final residual = 0, No Iterations 0
diagonal:  Solving for T, Initial residual = 0, Final residual = 0, No Iterations 0
 T goes from min(T) [0 0 0 0 0 0 0] -7.51803e-09 to max(T) [0 0 0 0 0 0 0] 0.947896

ExecutionTime = 11.69 s  ClockTime = 193 s

Time = 0.375
Courant Number mean: 0.217084 max: 0.51529
diagonal:  Solving for T, Initial residual = 0, Final residual = 0, No Iterations 0
diagonal:  Solving for T, Initial residual = 0, Final residual = 0, No Iterations 0
diagonal:  Solving for T, Initial residual = 0, Final residual = 0, No Iterations 0
diagonal:  Solving for T, Initial residual = 0, Final residual = 0, No Iterations 0
 T goes from min(T) [0 0 0 0 0 0 0] -8.56883e-09 to max(T) [0 0 0 0 0 0 0] 0.943831

ExecutionTime = 11.84 s  ClockTime = 196 s

Time = 0.38
Courant Number mean: 0.216732 max: 0.515481
diagonal:  Solving for T, Initial residual = 0, Final residual = 0, No Iterations 0
diagonal:  Solving for T, Initial residual = 0, Final residual = 0, No Iterations 0
diagonal:  Solving for T, Initial residual = 0, Final residual = 0, No Iterations 0
diagonal:  Solving for T, Initial residual = 0, Final residual = 0, No Iterations 0
 T goes from min(T) [0 0 0 0 0 0 0] -9.56522e-09 to max(T) [0 0 0 0 0 0 0] 0.942436

ExecutionTime = 11.97 s  ClockTime = 199 s

Time = 0.385
Courant Number mean: 0.21638 max: 0.515639
diagonal:  Solving for T, Initial residual = 0, Final residual = 0, No Iterations 0
diagonal:  Solving for T, Initial residual = 0, Final residual = 0, No Iterations 0
diagonal:  Solving for T, Initial residual = 0, Final residual = 0, No Iterations 0
diagonal:  Solving for T, Initial residual = 0, Final residual = 0, No Iterations 0
 T goes from min(T) [0 0 0 0 0 0 0] -1.05113e-08 to max(T) [0 0 0 0 0 0 0] 0.941848

ExecutionTime = 12.1 s  ClockTime = 201 s

Time = 0.39
Courant Number mean: 0.216029 max: 0.515762
diagonal:  Solving for T, Initial residual = 0, Final residual = 0, No Iterations 0
diagonal:  Solving for T, Initial residual = 0, Final residual = 0, No Iterations 0
diagonal:  Solving for T, Initial residual = 0, Final residual = 0, No Iterations 0
diagonal:  Solving for T, Initial residual = 0, Final residual = 0, No Iterations 0
 T goes from min(T) [0 0 0 0 0 0 0] -1.14108e-08 to max(T) [0 0 0 0 0 0 0] 0.945758

ExecutionTime = 12.23 s  ClockTime = 204 s

Time = 0.395
Courant Number mean: 0.215678 max: 0.515851
diagonal:  Solving for T, Initial residual = 0, Final residual = 0, No Iterations 0
diagonal:  Solving for T, Initial residual = 0, Final residual = 0, No Iterations 0
diagonal:  Solving for T, Initial residual = 0, Final residual = 0, No Iterations 0
diagonal:  Solving for T, Initial residual = 0, Final residual = 0, No Iterations 0
 T goes from min(T) [0 0 0 0 0 0 0] -1.22671e-08 to max(T) [0 0 0 0 0 0 0] 0.948424

ExecutionTime = 12.36 s  ClockTime = 207 s

Time = 0.4
Courant Number mean: 0.215324 max: 0.515906
diagonal:  Solving for T, Initial residual = 0, Final residual = 0, No Iterations 0
diagonal:  Solving for T, Initial residual = 0, Final residual = 0, No Iterations 0
diagonal:  Solving for T, Initial residual = 0, Final residual = 0, No Iterations 0
diagonal:  Solving for T, Initial residual = 0, Final residual = 0, No Iterations 0
 T goes from min(T) [0 0 0 0 0 0 0] -1.30831e-08 to max(T) [0 0 0 0 0 0 0] 0.949652

ExecutionTime = 12.5 s  ClockTime = 210 s

Time = 0.405
Courant Number mean: 0.214968 max: 0.515928
diagonal:  Solving for T, Initial residual = 0, Final residual = 0, No Iterations 0
diagonal:  Solving for T, Initial residual = 0, Final residual = 0, No Iterations 0
diagonal:  Solving for T, Initial residual = 0, Final residual = 0, No Iterations 0
diagonal:  Solving for T, Initial residual = 0, Final residual = 0, No Iterations 0
 T goes from min(T) [0 0 0 0 0 0 0] -1.38614e-08 to max(T) [0 0 0 0 0 0 0] 0.949421

ExecutionTime = 12.63 s  ClockTime = 213 s

Time = 0.41
Courant Number mean: 0.214607 max: 0.515951
diagonal:  Solving for T, Initial residual = 0, Final residual = 0, No Iterations 0
diagonal:  Solving for T, Initial residual = 0, Final residual = 0, No Iterations 0
diagonal:  Solving for T, Initial residual = 0, Final residual = 0, No Iterations 0
diagonal:  Solving for T, Initial residual = 0, Final residual = 0, No Iterations 0
 T goes from min(T) [0 0 0 0 0 0 0] -2.37997e-08 to max(T) [0 0 0 0 0 0 0] 0.947718

ExecutionTime = 12.78 s  ClockTime = 216 s

Time = 0.415
Courant Number mean: 0.214243 max: 0.516112
diagonal:  Solving for T, Initial residual = 0, Final residual = 0, No Iterations 0
diagonal:  Solving for T, Initial residual = 0, Final residual = 0, No Iterations 0
diagonal:  Solving for T, Initial residual = 0, Final residual = 0, No Iterations 0
diagonal:  Solving for T, Initial residual = 0, Final residual = 0, No Iterations 0
 T goes from min(T) [0 0 0 0 0 0 0] -4.15432e-08 to max(T) [0 0 0 0 0 0 0] 0.944541

ExecutionTime = 12.93 s  ClockTime = 219 s

Time = 0.42
Courant Number mean: 0.213874 max: 0.516245
diagonal:  Solving for T, Initial residual = 0, Final residual = 0, No Iterations 0
diagonal:  Solving for T, Initial residual = 0, Final residual = 0, No Iterations 0
diagonal:  Solving for T, Initial residual = 0, Final residual = 0, No Iterations 0
diagonal:  Solving for T, Initial residual = 0, Final residual = 0, No Iterations 0
 T goes from min(T) [0 0 0 0 0 0 0] -6.17764e-08 to max(T) [0 0 0 0 0 0 0] 0.941907

ExecutionTime = 13.06 s  ClockTime = 222 s

Time = 0.425
Courant Number mean: 0.213504 max: 0.516443
diagonal:  Solving for T, Initial residual = 0, Final residual = 0, No Iterations 0
diagonal:  Solving for T, Initial residual = 0, Final residual = 0, No Iterations 0
diagonal:  Solving for T, Initial residual = 0, Final residual = 0, No Iterations 0
diagonal:  Solving for T, Initial residual = 0, Final residual = 0, No Iterations 0
 T goes from min(T) [0 0 0 0 0 0 0] -8.11897e-08 to max(T) [0 0 0 0 0 0 0] 0.941564

ExecutionTime = 13.18 s  ClockTime = 224 s

Time = 0.43
Courant Number mean: 0.213134 max: 0.516608
diagonal:  Solving for T, Initial residual = 0, Final residual = 0, No Iterations 0
diagonal:  Solving for T, Initial residual = 0, Final residual = 0, No Iterations 0
diagonal:  Solving for T, Initial residual = 0, Final residual = 0, No Iterations 0
diagonal:  Solving for T, Initial residual = 0, Final residual = 0, No Iterations 0
 T goes from min(T) [0 0 0 0 0 0 0] -9.98151e-08 to max(T) [0 0 0 0 0 0 0] 0.940807

ExecutionTime = 13.31 s  ClockTime = 227 s

Time = 0.435
Courant Number mean: 0.212767 max: 0.516739
diagonal:  Solving for T, Initial residual = 0, Final residual = 0, No Iterations 0
diagonal:  Solving for T, Initial residual = 0, Final residual = 0, No Iterations 0
diagonal:  Solving for T, Initial residual = 0, Final residual = 0, No Iterations 0
diagonal:  Solving for T, Initial residual = 0, Final residual = 0, No Iterations 0
 T goes from min(T) [0 0 0 0 0 0 0] -1.17684e-07 to max(T) [0 0 0 0 0 0 0] 0.94254

ExecutionTime = 13.43 s  ClockTime = 230 s

Time = 0.44
Courant Number mean: 0.212401 max: 0.516836
diagonal:  Solving for T, Initial residual = 0, Final residual = 0, No Iterations 0
diagonal:  Solving for T, Initial residual = 0, Final residual = 0, No Iterations 0
diagonal:  Solving for T, Initial residual = 0, Final residual = 0, No Iterations 0
diagonal:  Solving for T, Initial residual = 0, Final residual = 0, No Iterations 0
 T goes from min(T) [0 0 0 0 0 0 0] -1.34825e-07 to max(T) [0 0 0 0 0 0 0] 0.945694

ExecutionTime = 13.56 s  ClockTime = 232 s

Time = 0.445
Courant Number mean: 0.212032 max: 0.516899
diagonal:  Solving for T, Initial residual = 0, Final residual = 0, No Iterations 0
diagonal:  Solving for T, Initial residual = 0, Final residual = 0, No Iterations 0
diagonal:  Solving for T, Initial residual = 0, Final residual = 0, No Iterations 0
diagonal:  Solving for T, Initial residual = 0, Final residual = 0, No Iterations 0
 T goes from min(T) [0 0 0 0 0 0 0] -1.51268e-07 to max(T) [0 0 0 0 0 0 0] 0.947509

ExecutionTime = 13.69 s  ClockTime = 235 s

Time = 0.45
Courant Number mean: 0.211661 max: 0.516929
diagonal:  Solving for T, Initial residual = 0, Final residual = 0, No Iterations 0
diagonal:  Solving for T, Initial residual = 0, Final residual = 0, No Iterations 0
diagonal:  Solving for T, Initial residual = 0, Final residual = 0, No Iterations 0
diagonal:  Solving for T, Initial residual = 0, Final residual = 0, No Iterations 0
 T goes from min(T) [0 0 0 0 0 0 0] -1.67042e-07 to max(T) [0 0 0 0 0 0 0] 0.947971

ExecutionTime = 13.82 s  ClockTime = 238 s

Time = 0.455
Courant Number mean: 0.211286 max: 0.516924
diagonal:  Solving for T, Initial residual = 0, Final residual = 0, No Iterations 0
diagonal:  Solving for T, Initial residual = 0, Final residual = 0, No Iterations 0
diagonal:  Solving for T, Initial residual = 0, Final residual = 0, No Iterations 0
diagonal:  Solving for T, Initial residual = 0, Final residual = 0, No Iterations 0
 T goes from min(T) [0 0 0 0 0 0 0] -1.82175e-07 to max(T) [0 0 0 0 0 0 0] 0.947069

ExecutionTime = 13.96 s  ClockTime = 241 s

Time = 0.46
Courant Number mean: 0.210906 max: 0.517058
diagonal:  Solving for T, Initial residual = 0, Final residual = 0, No Iterations 0
diagonal:  Solving for T, Initial residual = 0, Final residual = 0, No Iterations 0
diagonal:  Solving for T, Initial residual = 0, Final residual = 0, No Iterations 0
diagonal:  Solving for T, Initial residual = 0, Final residual = 0, No Iterations 0
 T goes from min(T) [0 0 0 0 0 0 0] -1.96696e-07 to max(T) [0 0 0 0 0 0 0] 0.944801

ExecutionTime = 14.08 s  ClockTime = 243 s

Time = 0.465
Courant Number mean: 0.210523 max: 0.517195
diagonal:  Solving for T, Initial residual = 0, Final residual = 0, No Iterations 0
diagonal:  Solving for T, Initial residual = 0, Final residual = 0, No Iterations 0
diagonal:  Solving for T, Initial residual = 0, Final residual = 0, No Iterations 0
diagonal:  Solving for T, Initial residual = 0, Final residual = 0, No Iterations 0
 T goes from min(T) [0 0 0 0 0 0 0] -2.10633e-07 to max(T) [0 0 0 0 0 0 0] 0.941735

ExecutionTime = 14.21 s  ClockTime = 246 s

Time = 0.47
Courant Number mean: 0.210139 max: 0.517299
diagonal:  Solving for T, Initial residual = 0, Final residual = 0, No Iterations 0
diagonal:  Solving for T, Initial residual = 0, Final residual = 0, No Iterations 0
diagonal:  Solving for T, Initial residual = 0, Final residual = 0, No Iterations 0
diagonal:  Solving for T, Initial residual = 0, Final residual = 0, No Iterations 0
 T goes from min(T) [0 0 0 0 0 0 0] -2.24015e-07 to max(T) [0 0 0 0 0 0 0] 0.940495

ExecutionTime = 14.35 s  ClockTime = 249 s

Time = 0.475
Courant Number mean: 0.209759 max: 0.517368
diagonal:  Solving for T, Initial residual = 0, Final residual = 0, No Iterations 0
diagonal:  Solving for T, Initial residual = 0, Final residual = 0, No Iterations 0
diagonal:  Solving for T, Initial residual = 0, Final residual = 0, No Iterations 0
diagonal:  Solving for T, Initial residual = 0, Final residual = 0, No Iterations 0
 T goes from min(T) [0 0 0 0 0 0 0] -2.36873e-07 to max(T) [0 0 0 0 0 0 0] 0.940865

ExecutionTime = 14.47 s  ClockTime = 251 s

Time = 0.48
Courant Number mean: 0.209377 max: 0.517403
diagonal:  Solving for T, Initial residual = 0, Final residual = 0, No Iterations 0
diagonal:  Solving for T, Initial residual = 0, Final residual = 0, No Iterations 0
diagonal:  Solving for T, Initial residual = 0, Final residual = 0, No Iterations 0
diagonal:  Solving for T, Initial residual = 0, Final residual = 0, No Iterations 0
 T goes from min(T) [0 0 0 0 0 0 0] -2.49236e-07 to max(T) [0 0 0 0 0 0 0] 0.941804

ExecutionTime = 14.61 s  ClockTime = 254 s

Time = 0.485
Courant Number mean: 0.208995 max: 0.517404
diagonal:  Solving for T, Initial residual = 0, Final residual = 0, No Iterations 0
diagonal:  Solving for T, Initial residual = 0, Final residual = 0, No Iterations 0
diagonal:  Solving for T, Initial residual = 0, Final residual = 0, No Iterations 0
diagonal:  Solving for T, Initial residual = 0, Final residual = 0, No Iterations 0
 T goes from min(T) [0 0 0 0 0 0 0] -2.61138e-07 to max(T) [0 0 0 0 0 0 0] 0.942322

ExecutionTime = 14.73 s  ClockTime = 256 s

Time = 0.49
Courant Number mean: 0.20861 max: 0.517371
diagonal:  Solving for T, Initial residual = 0, Final residual = 0, No Iterations 0
diagonal:  Solving for T, Initial residual = 0, Final residual = 0, No Iterations 0
diagonal:  Solving for T, Initial residual = 0, Final residual = 0, No Iterations 0
diagonal:  Solving for T, Initial residual = 0, Final residual = 0, No Iterations 0
 T goes from min(T) [0 0 0 0 0 0 0] -2.72611e-07 to max(T) [0 0 0 0 0 0 0] 0.942443

ExecutionTime = 14.86 s  ClockTime = 259 s

Time = 0.495
Courant Number mean: 0.208222 max: 0.517304
diagonal:  Solving for T, Initial residual = 0, Final residual = 0, No Iterations 0
diagonal:  Solving for T, Initial residual = 0, Final residual = 0, No Iterations 0
diagonal:  Solving for T, Initial residual = 0, Final residual = 0, No Iterations 0
diagonal:  Solving for T, Initial residual = 0, Final residual = 0, No Iterations 0
 T goes from min(T) [0 0 0 0 0 0 0] -2.8369e-07 to max(T) [0 0 0 0 0 0 0] 0.942189

ExecutionTime = 14.99 s  ClockTime = 262 s

Time = 0.5
Courant Number mean: 0.207833 max: 0.517203
diagonal:  Solving for T, Initial residual = 0, Final residual = 0, No Iterations 0
diagonal:  Solving for T, Initial residual = 0, Final residual = 0, No Iterations 0
diagonal:  Solving for T, Initial residual = 0, Final residual = 0, No Iterations 0
diagonal:  Solving for T, Initial residual = 0, Final residual = 0, No Iterations 0
 T goes from min(T) [0 0 0 0 0 0 0] -2.94412e-07 to max(T) [0 0 0 0 0 0 0] 0.943452

ExecutionTime = 15.11 s  ClockTime = 264 s

Time = 0.505
Courant Number mean: 0.207442 max: 0.517068
diagonal:  Solving for T, Initial residual = 0, Final residual = 0, No Iterations 0
diagonal:  Solving for T, Initial residual = 0, Final residual = 0, No Iterations 0
diagonal:  Solving for T, Initial residual = 0, Final residual = 0, No Iterations 0
diagonal:  Solving for T, Initial residual = 0, Final residual = 0, No Iterations 0
 T goes from min(T) [0 0 0 0 0 0 0] -3.04815e-07 to max(T) [0 0 0 0 0 0 0] 0.943729

ExecutionTime = 15.24 s  ClockTime = 266 s

Time = 0.51
Courant Number mean: 0.207046 max: 0.517148
diagonal:  Solving for T, Initial residual = 0, Final residual = 0, No Iterations 0
diagonal:  Solving for T, Initial residual = 0, Final residual = 0, No Iterations 0
diagonal:  Solving for T, Initial residual = 0, Final residual = 0, No Iterations 0
diagonal:  Solving for T, Initial residual = 0, Final residual = 0, No Iterations 0
 T goes from min(T) [0 0 0 0 0 0 0] -3.14938e-07 to max(T) [0 0 0 0 0 0 0] 0.942696

ExecutionTime = 15.37 s  ClockTime = 269 s

Time = 0.515
Courant Number mean: 0.206649 max: 0.517258
diagonal:  Solving for T, Initial residual = 0, Final residual = 0, No Iterations 0
diagonal:  Solving for T, Initial residual = 0, Final residual = 0, No Iterations 0
diagonal:  Solving for T, Initial residual = 0, Final residual = 0, No Iterations 0
diagonal:  Solving for T, Initial residual = 0, Final residual = 0, No Iterations 0
 T goes from min(T) [0 0 0 0 0 0 0] -5.06079e-07 to max(T) [0 0 0 0 0 0 0] 0.940781

ExecutionTime = 15.5 s  ClockTime = 271 s

Time = 0.52
Courant Number mean: 0.206256 max: 0.517335
diagonal:  Solving for T, Initial residual = 0, Final residual = 0, No Iterations 0
diagonal:  Solving for T, Initial residual = 0, Final residual = 0, No Iterations 0
diagonal:  Solving for T, Initial residual = 0, Final residual = 0, No Iterations 0
diagonal:  Solving for T, Initial residual = 0, Final residual = 0, No Iterations 0
 T goes from min(T) [0 0 0 0 0 0 0] -9.01184e-07 to max(T) [0 0 0 0 0 0 0] 0.938066

ExecutionTime = 15.62 s  ClockTime = 273 s

Time = 0.525
Courant Number mean: 0.205864 max: 0.517378
diagonal:  Solving for T, Initial residual = 0, Final residual = 0, No Iterations 0
diagonal:  Solving for T, Initial residual = 0, Final residual = 0, No Iterations 0
diagonal:  Solving for T, Initial residual = 0, Final residual = 0, No Iterations 0
diagonal:  Solving for T, Initial residual = 0, Final residual = 0, No Iterations 0
 T goes from min(T) [0 0 0 0 0 0 0] -1.68208e-06 to max(T) [0 0 0 0 0 0 0] 0.934164

ExecutionTime = 15.74 s  ClockTime = 276 s

Time = 0.53
Courant Number mean: 0.20547 max: 0.517387
diagonal:  Solving for T, Initial residual = 0, Final residual = 0, No Iterations 0
diagonal:  Solving for T, Initial residual = 0, Final residual = 0, No Iterations 0
diagonal:  Solving for T, Initial residual = 0, Final residual = 0, No Iterations 0
diagonal:  Solving for T, Initial residual = 0, Final residual = 0, No Iterations 0
 T goes from min(T) [0 0 0 0 0 0 0] -2.4474e-06 to max(T) [0 0 0 0 0 0 0] 0.931987

ExecutionTime = 15.87 s  ClockTime = 278 s

Time = 0.535
Courant Number mean: 0.205074 max: 0.517362
diagonal:  Solving for T, Initial residual = 0, Final residual = 0, No Iterations 0
diagonal:  Solving for T, Initial residual = 0, Final residual = 0, No Iterations 0
diagonal:  Solving for T, Initial residual = 0, Final residual = 0, No Iterations 0
diagonal:  Solving for T, Initial residual = 0, Final residual = 0, No Iterations 0
 T goes from min(T) [0 0 0 0 0 0 0] -3.19359e-06 to max(T) [0 0 0 0 0 0 0] 0.932054

ExecutionTime = 16 s  ClockTime = 281 s

Time = 0.54
Courant Number mean: 0.204677 max: 0.517304
diagonal:  Solving for T, Initial residual = 0, Final residual = 0, No Iterations 0
diagonal:  Solving for T, Initial residual = 0, Final residual = 0, No Iterations 0
diagonal:  Solving for T, Initial residual = 0, Final residual = 0, No Iterations 0
diagonal:  Solving for T, Initial residual = 0, Final residual = 0, No Iterations 0
 T goes from min(T) [0 0 0 0 0 0 0] -3.91701e-06 to max(T) [0 0 0 0 0 0 0] 0.931791

ExecutionTime = 16.13 s  ClockTime = 283 s

Time = 0.545
Courant Number mean: 0.204275 max: 0.517212
diagonal:  Solving for T, Initial residual = 0, Final residual = 0, No Iterations 0
diagonal:  Solving for T, Initial residual = 0, Final residual = 0, No Iterations 0
diagonal:  Solving for T, Initial residual = 0, Final residual = 0, No Iterations 0
diagonal:  Solving for T, Initial residual = 0, Final residual = 0, No Iterations 0
 T goes from min(T) [0 0 0 0 0 0 0] -4.61395e-06 to max(T) [0 0 0 0 0 0 0] 0.931215

ExecutionTime = 16.28 s  ClockTime = 286 s

Time = 0.55
Courant Number mean: 0.203869 max: 0.517086
diagonal:  Solving for T, Initial residual = 0, Final residual = 0, No Iterations 0
diagonal:  Solving for T, Initial residual = 0, Final residual = 0, No Iterations 0
diagonal:  Solving for T, Initial residual = 0, Final residual = 0, No Iterations 0
diagonal:  Solving for T, Initial residual = 0, Final residual = 0, No Iterations 0
 T goes from min(T) [0 0 0 0 0 0 0] -5.28071e-06 to max(T) [0 0 0 0 0 0 0] 0.930347

ExecutionTime = 16.4 s  ClockTime = 288 s

Time = 0.555
Courant Number mean: 0.203462 max: 0.516927
diagonal:  Solving for T, Initial residual = 0, Final residual = 0, No Iterations 0
diagonal:  Solving for T, Initial residual = 0, Final residual = 0, No Iterations 0
diagonal:  Solving for T, Initial residual = 0, Final residual = 0, No Iterations 0
diagonal:  Solving for T, Initial residual = 0, Final residual = 0, No Iterations 0
 T goes from min(T) [0 0 0 0 0 0 0] -5.91362e-06 to max(T) [0 0 0 0 0 0 0] 0.933531

ExecutionTime = 16.54 s  ClockTime = 291 s

Time = 0.56
Courant Number mean: 0.203059 max: 0.516734
diagonal:  Solving for T, Initial residual = 0, Final residual = 0, No Iterations 0
diagonal:  Solving for T, Initial residual = 0, Final residual = 0, No Iterations 0
diagonal:  Solving for T, Initial residual = 0, Final residual = 0, No Iterations 0
diagonal:  Solving for T, Initial residual = 0, Final residual = 0, No Iterations 0
 T goes from min(T) [0 0 0 0 0 0 0] -6.50908e-06 to max(T) [0 0 0 0 0 0 0] 0.935526

ExecutionTime = 16.67 s  ClockTime = 293 s

Time = 0.565
Courant Number mean: 0.202659 max: 0.516508
diagonal:  Solving for T, Initial residual = 0, Final residual = 0, No Iterations 0
diagonal:  Solving for T, Initial residual = 0, Final residual = 0, No Iterations 0
diagonal:  Solving for T, Initial residual = 0, Final residual = 0, No Iterations 0
diagonal:  Solving for T, Initial residual = 0, Final residual = 0, No Iterations 0
 T goes from min(T) [0 0 0 0 0 0 0] -7.06359e-06 to max(T) [0 0 0 0 0 0 0] 0.936474

ExecutionTime = 16.8 s  ClockTime = 296 s

Time = 0.57
Courant Number mean: 0.202258 max: 0.516347
diagonal:  Solving for T, Initial residual = 0, Final residual = 0, No Iterations 0
diagonal:  Solving for T, Initial residual = 0, Final residual = 0, No Iterations 0
diagonal:  Solving for T, Initial residual = 0, Final residual = 0, No Iterations 0
diagonal:  Solving for T, Initial residual = 0, Final residual = 0, No Iterations 0
 T goes from min(T) [0 0 0 0 0 0 0] -8.01784e-06 to max(T) [0 0 0 0 0 0 0] 0.936991

ExecutionTime = 16.92 s  ClockTime = 298 s

Time = 0.575
Courant Number mean: 0.201855 max: 0.516361
diagonal:  Solving for T, Initial residual = 0, Final residual = 0, No Iterations 0
diagonal:  Solving for T, Initial residual = 0, Final residual = 0, No Iterations 0
diagonal:  Solving for T, Initial residual = 0, Final residual = 0, No Iterations 0
diagonal:  Solving for T, Initial residual = 0, Final residual = 0, No Iterations 0
 T goes from min(T) [0 0 0 0 0 0 0] -9.23614e-06 to max(T) [0 0 0 0 0 0 0] 0.9364

ExecutionTime = 17.05 s  ClockTime = 301 s

Time = 0.58
Courant Number mean: 0.20145 max: 0.516341
diagonal:  Solving for T, Initial residual = 0, Final residual = 0, No Iterations 0
diagonal:  Solving for T, Initial residual = 0, Final residual = 0, No Iterations 0
diagonal:  Solving for T, Initial residual = 0, Final residual = 0, No Iterations 0
diagonal:  Solving for T, Initial residual = 0, Final residual = 0, No Iterations 0
 T goes from min(T) [0 0 0 0 0 0 0] -1.03745e-05 to max(T) [0 0 0 0 0 0 0] 0.934705

ExecutionTime = 17.17 s  ClockTime = 303 s

Time = 0.585
Courant Number mean: 0.201041 max: 0.516288
diagonal:  Solving for T, Initial residual = 0, Final residual = 0, No Iterations 0
diagonal:  Solving for T, Initial residual = 0, Final residual = 0, No Iterations 0
diagonal:  Solving for T, Initial residual = 0, Final residual = 0, No Iterations 0
diagonal:  Solving for T, Initial residual = 0, Final residual = 0, No Iterations 0
 T goes from min(T) [0 0 0 0 0 0 0] -1.14269e-05 to max(T) [0 0 0 0 0 0 0] 0.932678

ExecutionTime = 17.3 s  ClockTime = 305 s

Time = 0.59
Courant Number mean: 0.200631 max: 0.516202
diagonal:  Solving for T, Initial residual = 0, Final residual = 0, No Iterations 0
diagonal:  Solving for T, Initial residual = 0, Final residual = 0, No Iterations 0
diagonal:  Solving for T, Initial residual = 0, Final residual = 0, No Iterations 0
diagonal:  Solving for T, Initial residual = 0, Final residual = 0, No Iterations 0
 T goes from min(T) [0 0 0 0 0 0 0] -1.23879e-05 to max(T) [0 0 0 0 0 0 0] 0.931793

ExecutionTime = 17.43 s  ClockTime = 308 s

Time = 0.595
Courant Number mean: 0.200219 max: 0.516083
diagonal:  Solving for T, Initial residual = 0, Final residual = 0, No Iterations 0
diagonal:  Solving for T, Initial residual = 0, Final residual = 0, No Iterations 0
diagonal:  Solving for T, Initial residual = 0, Final residual = 0, No Iterations 0
diagonal:  Solving for T, Initial residual = 0, Final residual = 0, No Iterations 0
 T goes from min(T) [0 0 0 0 0 0 0] -1.32527e-05 to max(T) [0 0 0 0 0 0 0] 0.929638

ExecutionTime = 17.55 s  ClockTime = 310 s

Time = 0.6
Courant Number mean: 0.199802 max: 0.51593
diagonal:  Solving for T, Initial residual = 0, Final residual = 0, No Iterations 0
diagonal:  Solving for T, Initial residual = 0, Final residual = 0, No Iterations 0
diagonal:  Solving for T, Initial residual = 0, Final residual = 0, No Iterations 0
diagonal:  Solving for T, Initial residual = 0, Final residual = 0, No Iterations 0
 T goes from min(T) [0 0 0 0 0 0 0] -1.40172e-05 to max(T) [0 0 0 0 0 0 0] 0.926222

ExecutionTime = 17.68 s  ClockTime = 313 s

Time = 0.605
Courant Number mean: 0.199391 max: 0.515745
diagonal:  Solving for T, Initial residual = 0, Final residual = 0, No Iterations 0
diagonal:  Solving for T, Initial residual = 0, Final residual = 0, No Iterations 0
diagonal:  Solving for T, Initial residual = 0, Final residual = 0, No Iterations 0
diagonal:  Solving for T, Initial residual = 0, Final residual = 0, No Iterations 0
 T goes from min(T) [0 0 0 0 0 0 0] -1.46778e-05 to max(T) [0 0 0 0 0 0 0] 0.921896

ExecutionTime = 17.8 s  ClockTime = 315 s

Time = 0.61
Courant Number mean: 0.19898 max: 0.515526
diagonal:  Solving for T, Initial residual = 0, Final residual = 0, No Iterations 0
diagonal:  Solving for T, Initial residual = 0, Final residual = 0, No Iterations 0
diagonal:  Solving for T, Initial residual = 0, Final residual = 0, No Iterations 0
diagonal:  Solving for T, Initial residual = 0, Final residual = 0, No Iterations 0
 T goes from min(T) [0 0 0 0 0 0 0] -1.5232e-05 to max(T) [0 0 0 0 0 0 0] 0.921129

ExecutionTime = 17.93 s  ClockTime = 317 s

Time = 0.615
Courant Number mean: 0.198569 max: 0.515274
diagonal:  Solving for T, Initial residual = 0, Final residual = 0, No Iterations 0
diagonal:  Solving for T, Initial residual = 0, Final residual = 0, No Iterations 0
diagonal:  Solving for T, Initial residual = 0, Final residual = 0, No Iterations 0
diagonal:  Solving for T, Initial residual = 0, Final residual = 0, No Iterations 0
 T goes from min(T) [0 0 0 0 0 0 0] -1.5678e-05 to max(T) [0 0 0 0 0 0 0] 0.922789

ExecutionTime = 18.05 s  ClockTime = 320 s

Time = 0.62
Courant Number mean: 0.198156 max: 0.51499
diagonal:  Solving for T, Initial residual = 0, Final residual = 0, No Iterations 0
diagonal:  Solving for T, Initial residual = 0, Final residual = 0, No Iterations 0
diagonal:  Solving for T, Initial residual = 0, Final residual = 0, No Iterations 0
diagonal:  Solving for T, Initial residual = 0, Final residual = 0, No Iterations 0
 T goes from min(T) [0 0 0 0 0 0 0] -1.61957e-05 to max(T) [0 0 0 0 0 0 0] 0.923186

ExecutionTime = 18.18 s  ClockTime = 322 s

Time = 0.625
Courant Number mean: 0.197741 max: 0.514847
diagonal:  Solving for T, Initial residual = 0, Final residual = 0, No Iterations 0
diagonal:  Solving for T, Initial residual = 0, Final residual = 0, No Iterations 0
diagonal:  Solving for T, Initial residual = 0, Final residual = 0, No Iterations 0
diagonal:  Solving for T, Initial residual = 0, Final residual = 0, No Iterations 0
 T goes from min(T) [0 0 0 0 0 0 0] -1.7344e-05 to max(T) [0 0 0 0 0 0 0] 0.92232

ExecutionTime = 18.3 s  ClockTime = 325 s

Time = 0.63
Courant Number mean: 0.197326 max: 0.514707
diagonal:  Solving for T, Initial residual = 0, Final residual = 0, No Iterations 0
diagonal:  Solving for T, Initial residual = 0, Final residual = 0, No Iterations 0
diagonal:  Solving for T, Initial residual = 0, Final residual = 0, No Iterations 0
diagonal:  Solving for T, Initial residual = 0, Final residual = 0, No Iterations 0
 T goes from min(T) [0 0 0 0 0 0 0] -1.83084e-05 to max(T) [0 0 0 0 0 0 0] 0.921689

ExecutionTime = 18.43 s  ClockTime = 327 s

Time = 0.635
Courant Number mean: 0.196907 max: 0.514533
diagonal:  Solving for T, Initial residual = 0, Final residual = 0, No Iterations 0
diagonal:  Solving for T, Initial residual = 0, Final residual = 0, No Iterations 0
diagonal:  Solving for T, Initial residual = 0, Final residual = 0, No Iterations 0
diagonal:  Solving for T, Initial residual = 0, Final residual = 0, No Iterations 0
 T goes from min(T) [0 0 0 0 0 0 0] -1.90892e-05 to max(T) [0 0 0 0 0 0 0] 0.924109

ExecutionTime = 18.56 s  ClockTime = 329 s

Time = 0.64
Courant Number mean: 0.196486 max: 0.514327
diagonal:  Solving for T, Initial residual = 0, Final residual = 0, No Iterations 0
diagonal:  Solving for T, Initial residual = 0, Final residual = 0, No Iterations 0
diagonal:  Solving for T, Initial residual = 0, Final residual = 0, No Iterations 0
diagonal:  Solving for T, Initial residual = 0, Final residual = 0, No Iterations 0
 T goes from min(T) [0 0 0 0 0 0 0] -1.96884e-05 to max(T) [0 0 0 0 0 0 0] 0.925556

ExecutionTime = 18.69 s  ClockTime = 332 s

Time = 0.645
Courant Number mean: 0.196066 max: 0.514087
diagonal:  Solving for T, Initial residual = 0, Final residual = 0, No Iterations 0
diagonal:  Solving for T, Initial residual = 0, Final residual = 0, No Iterations 0
diagonal:  Solving for T, Initial residual = 0, Final residual = 0, No Iterations 0
diagonal:  Solving for T, Initial residual = 0, Final residual = 0, No Iterations 0
 T goes from min(T) [0 0 0 0 0 0 0] -2.01095e-05 to max(T) [0 0 0 0 0 0 0] 0.92603

ExecutionTime = 18.81 s  ClockTime = 334 s

Time = 0.65
Courant Number mean: 0.195648 max: 0.513814
diagonal:  Solving for T, Initial residual = 0, Final residual = 0, No Iterations 0
diagonal:  Solving for T, Initial residual = 0, Final residual = 0, No Iterations 0
diagonal:  Solving for T, Initial residual = 0, Final residual = 0, No Iterations 0
diagonal:  Solving for T, Initial residual = 0, Final residual = 0, No Iterations 0
 T goes from min(T) [0 0 0 0 0 0 0] -2.03902e-05 to max(T) [0 0 0 0 0 0 0] 0.925539

ExecutionTime = 18.94 s  ClockTime = 337 s

Time = 0.655
Courant Number mean: 0.195232 max: 0.513532
diagonal:  Solving for T, Initial residual = 0, Final residual = 0, No Iterations 0
diagonal:  Solving for T, Initial residual = 0, Final residual = 0, No Iterations 0
diagonal:  Solving for T, Initial residual = 0, Final residual = 0, No Iterations 0
diagonal:  Solving for T, Initial residual = 0, Final residual = 0, No Iterations 0
 T goes from min(T) [0 0 0 0 0 0 0] -2.22306e-05 to max(T) [0 0 0 0 0 0 0] 0.924461

ExecutionTime = 19.06 s  ClockTime = 339 s

Time = 0.66
Courant Number mean: 0.194813 max: 0.513285
diagonal:  Solving for T, Initial residual = 0, Final residual = 0, No Iterations 0
diagonal:  Solving for T, Initial residual = 0, Final residual = 0, No Iterations 0
diagonal:  Solving for T, Initial residual = 0, Final residual = 0, No Iterations 0
diagonal:  Solving for T, Initial residual = 0, Final residual = 0, No Iterations 0
 T goes from min(T) [0 0 0 0 0 0 0] -2.41356e-05 to max(T) [0 0 0 0 0 0 0] 0.925304

ExecutionTime = 19.19 s  ClockTime = 341 s

Time = 0.665
Courant Number mean: 0.194395 max: 0.513006
diagonal:  Solving for T, Initial residual = 0, Final residual = 0, No Iterations 0
diagonal:  Solving for T, Initial residual = 0, Final residual = 0, No Iterations 0
diagonal:  Solving for T, Initial residual = 0, Final residual = 0, No Iterations 0
diagonal:  Solving for T, Initial residual = 0, Final residual = 0, No Iterations 0
 T goes from min(T) [0 0 0 0 0 0 0] -2.51597e-05 to max(T) [0 0 0 0 0 0 0] 0.925128

ExecutionTime = 19.31 s  ClockTime = 344 s

Time = 0.67
Courant Number mean: 0.193975 max: 0.51279
diagonal:  Solving for T, Initial residual = 0, Final residual = 0, No Iterations 0
diagonal:  Solving for T, Initial residual = 0, Final residual = 0, No Iterations 0
diagonal:  Solving for T, Initial residual = 0, Final residual = 0, No Iterations 0
diagonal:  Solving for T, Initial residual = 0, Final residual = 0, No Iterations 0
 T goes from min(T) [0 0 0 0 0 0 0] -2.49684e-05 to max(T) [0 0 0 0 0 0 0] 0.92394

ExecutionTime = 19.44 s  ClockTime = 346 s

Time = 0.675
Courant Number mean: 0.193554 max: 0.512656
diagonal:  Solving for T, Initial residual = 0, Final residual = 0, No Iterations 0
diagonal:  Solving for T, Initial residual = 0, Final residual = 0, No Iterations 0
diagonal:  Solving for T, Initial residual = 0, Final residual = 0, No Iterations 0
diagonal:  Solving for T, Initial residual = 0, Final residual = 0, No Iterations 0
 T goes from min(T) [0 0 0 0 0 0 0] -2.81832e-05 to max(T) [0 0 0 0 0 0 0] 0.921752

ExecutionTime = 19.59 s  ClockTime = 349 s

Time = 0.68
Courant Number mean: 0.193132 max: 0.512489
diagonal:  Solving for T, Initial residual = 0, Final residual = 0, No Iterations 0
diagonal:  Solving for T, Initial residual = 0, Final residual = 0, No Iterations 0
diagonal:  Solving for T, Initial residual = 0, Final residual = 0, No Iterations 0
diagonal:  Solving for T, Initial residual = 0, Final residual = 0, No Iterations 0
 T goes from min(T) [0 0 0 0 0 0 0] -3.26454e-05 to max(T) [0 0 0 0 0 0 0] 0.918577

ExecutionTime = 19.72 s  ClockTime = 351 s

Time = 0.685
Courant Number mean: 0.192708 max: 0.512289
diagonal:  Solving for T, Initial residual = 0, Final residual = 0, No Iterations 0
diagonal:  Solving for T, Initial residual = 0, Final residual = 0, No Iterations 0
diagonal:  Solving for T, Initial residual = 0, Final residual = 0, No Iterations 0
diagonal:  Solving for T, Initial residual = 0, Final residual = 0, No Iterations 0
 T goes from min(T) [0 0 0 0 0 0 0] -3.71161e-05 to max(T) [0 0 0 0 0 0 0] 0.915272

ExecutionTime = 19.85 s  ClockTime = 354 s

Time = 0.69
Courant Number mean: 0.192285 max: 0.512057
diagonal:  Solving for T, Initial residual = 0, Final residual = 0, No Iterations 0
diagonal:  Solving for T, Initial residual = 0, Final residual = 0, No Iterations 0
diagonal:  Solving for T, Initial residual = 0, Final residual = 0, No Iterations 0
diagonal:  Solving for T, Initial residual = 0, Final residual = 0, No Iterations 0
 T goes from min(T) [0 0 0 0 0 0 0] -4.15304e-05 to max(T) [0 0 0 0 0 0 0] 0.91549

ExecutionTime = 19.98 s  ClockTime = 356 s

Time = 0.695
Courant Number mean: 0.191863 max: 0.511792
diagonal:  Solving for T, Initial residual = 0, Final residual = 0, No Iterations 0
diagonal:  Solving for T, Initial residual = 0, Final residual = 0, No Iterations 0
diagonal:  Solving for T, Initial residual = 0, Final residual = 0, No Iterations 0
diagonal:  Solving for T, Initial residual = 0, Final residual = 0, No Iterations 0
 T goes from min(T) [0 0 0 0 0 0 0] -4.53763e-05 to max(T) [0 0 0 0 0 0 0] 0.91641

ExecutionTime = 20.1 s  ClockTime = 359 s

Time = 0.7
Courant Number mean: 0.191441 max: 0.511494
diagonal:  Solving for T, Initial residual = 0, Final residual = 0, No Iterations 0
diagonal:  Solving for T, Initial residual = 0, Final residual = 0, No Iterations 0
diagonal:  Solving for T, Initial residual = 0, Final residual = 0, No Iterations 0
diagonal:  Solving for T, Initial residual = 0, Final residual = 0, No Iterations 0
 T goes from min(T) [0 0 0 0 0 0 0] -4.83592e-05 to max(T) [0 0 0 0 0 0 0] 0.916326

ExecutionTime = 20.23 s  ClockTime = 361 s

Time = 0.705
Courant Number mean: 0.191017 max: 0.511165
diagonal:  Solving for T, Initial residual = 0, Final residual = 0, No Iterations 0
diagonal:  Solving for T, Initial residual = 0, Final residual = 0, No Iterations 0
diagonal:  Solving for T, Initial residual = 0, Final residual = 0, No Iterations 0
diagonal:  Solving for T, Initial residual = 0, Final residual = 0, No Iterations 0
 T goes from min(T) [0 0 0 0 0 0 0] -5.09516e-05 to max(T) [0 0 0 0 0 0 0] 0.915246

ExecutionTime = 20.36 s  ClockTime = 364 s

Time = 0.71
Courant Number mean: 0.190592 max: 0.510803
diagonal:  Solving for T, Initial residual = 0, Final residual = 0, No Iterations 0
diagonal:  Solving for T, Initial residual = 0, Final residual = 0, No Iterations 0
diagonal:  Solving for T, Initial residual = 0, Final residual = 0, No Iterations 0
diagonal:  Solving for T, Initial residual = 0, Final residual = 0, No Iterations 0
 T goes from min(T) [0 0 0 0 0 0 0] -5.33157e-05 to max(T) [0 0 0 0 0 0 0] 0.913183

ExecutionTime = 20.48 s  ClockTime = 366 s

Time = 0.715
Courant Number mean: 0.190167 max: 0.510409
diagonal:  Solving for T, Initial residual = 0, Final residual = 0, No Iterations 0
diagonal:  Solving for T, Initial residual = 0, Final residual = 0, No Iterations 0
diagonal:  Solving for T, Initial residual = 0, Final residual = 0, No Iterations 0
diagonal:  Solving for T, Initial residual = 0, Final residual = 0, No Iterations 0
 T goes from min(T) [0 0 0 0 0 0 0] -5.40227e-05 to max(T) [0 0 0 0 0 0 0] 0.912331

ExecutionTime = 20.6 s  ClockTime = 368 s

Time = 0.72
Courant Number mean: 0.189744 max: 0.509983
diagonal:  Solving for T, Initial residual = 0, Final residual = 0, No Iterations 0
diagonal:  Solving for T, Initial residual = 0, Final residual = 0, No Iterations 0
diagonal:  Solving for T, Initial residual = 0, Final residual = 0, No Iterations 0
diagonal:  Solving for T, Initial residual = 0, Final residual = 0, No Iterations 0
 T goes from min(T) [0 0 0 0 0 0 0] -5.25974e-05 to max(T) [0 0 0 0 0 0 0] 0.912126

ExecutionTime = 20.73 s  ClockTime = 371 s

Time = 0.725
Courant Number mean: 0.189316 max: 0.509525
diagonal:  Solving for T, Initial residual = 0, Final residual = 0, No Iterations 0
diagonal:  Solving for T, Initial residual = 0, Final residual = 0, No Iterations 0
diagonal:  Solving for T, Initial residual = 0, Final residual = 0, No Iterations 0
diagonal:  Solving for T, Initial residual = 0, Final residual = 0, No Iterations 0
 T goes from min(T) [0 0 0 0 0 0 0] -5.83617e-05 to max(T) [0 0 0 0 0 0 0] 0.911393

ExecutionTime = 20.86 s  ClockTime = 373 s

Time = 0.73
Courant Number mean: 0.188887 max: 0.509252
diagonal:  Solving for T, Initial residual = 0, Final residual = 0, No Iterations 0
diagonal:  Solving for T, Initial residual = 0, Final residual = 0, No Iterations 0
diagonal:  Solving for T, Initial residual = 0, Final residual = 0, No Iterations 0
diagonal:  Solving for T, Initial residual = 0, Final residual = 0, No Iterations 0
 T goes from min(T) [0 0 0 0 0 0 0] -6.60901e-05 to max(T) [0 0 0 0 0 0 0] 0.910759

ExecutionTime = 20.98 s  ClockTime = 375 s

Time = 0.735
Courant Number mean: 0.188462 max: 0.509025
diagonal:  Solving for T, Initial residual = 0, Final residual = 0, No Iterations 0
diagonal:  Solving for T, Initial residual = 0, Final residual = 0, No Iterations 0
diagonal:  Solving for T, Initial residual = 0, Final residual = 0, No Iterations 0
diagonal:  Solving for T, Initial residual = 0, Final residual = 0, No Iterations 0
 T goes from min(T) [0 0 0 0 0 0 0] -7.34356e-05 to max(T) [0 0 0 0 0 0 0] 0.912394

ExecutionTime = 21.1 s  ClockTime = 378 s

Time = 0.74
Courant Number mean: 0.188038 max: 0.508765
diagonal:  Solving for T, Initial residual = 0, Final residual = 0, No Iterations 0
diagonal:  Solving for T, Initial residual = 0, Final residual = 0, No Iterations 0
diagonal:  Solving for T, Initial residual = 0, Final residual = 0, No Iterations 0
diagonal:  Solving for T, Initial residual = 0, Final residual = 0, No Iterations 0
 T goes from min(T) [0 0 0 0 0 0 0] -8.00812e-05 to max(T) [0 0 0 0 0 0 0] 0.913443

ExecutionTime = 21.24 s  ClockTime = 380 s

Time = 0.745
Courant Number mean: 0.187614 max: 0.508473
diagonal:  Solving for T, Initial residual = 0, Final residual = 0, No Iterations 0
diagonal:  Solving for T, Initial residual = 0, Final residual = 0, No Iterations 0
diagonal:  Solving for T, Initial residual = 0, Final residual = 0, No Iterations 0
diagonal:  Solving for T, Initial residual = 0, Final residual = 0, No Iterations 0
 T goes from min(T) [0 0 0 0 0 0 0] -8.56635e-05 to max(T) [0 0 0 0 0 0 0] 0.91393

ExecutionTime = 21.36 s  ClockTime = 382 s

Time = 0.75
Courant Number mean: 0.18719 max: 0.50815
diagonal:  Solving for T, Initial residual = 0, Final residual = 0, No Iterations 0
diagonal:  Solving for T, Initial residual = 0, Final residual = 0, No Iterations 0
diagonal:  Solving for T, Initial residual = 0, Final residual = 0, No Iterations 0
diagonal:  Solving for T, Initial residual = 0, Final residual = 0, No Iterations 0
 T goes from min(T) [0 0 0 0 0 0 0] -8.97728e-05 to max(T) [0 0 0 0 0 0 0] 0.913878

ExecutionTime = 21.49 s  ClockTime = 384 s

Time = 0.755
Courant Number mean: 0.186764 max: 0.507795
diagonal:  Solving for T, Initial residual = 0, Final residual = 0, No Iterations 0
diagonal:  Solving for T, Initial residual = 0, Final residual = 0, No Iterations 0
diagonal:  Solving for T, Initial residual = 0, Final residual = 0, No Iterations 0
diagonal:  Solving for T, Initial residual = 0, Final residual = 0, No Iterations 0
 T goes from min(T) [0 0 0 0 0 0 0] -9.19554e-05 to max(T) [0 0 0 0 0 0 0] 0.913313

ExecutionTime = 21.61 s  ClockTime = 387 s

Time = 0.76
Courant Number mean: 0.186339 max: 0.507408
[...]
 T goes from min(T) [0 0 0 0 0 0 0] -0.100165 to max(T) [0 0 0 0 0 0 0] 0.607964

ExecutionTime = 157.7 s  ClockTime = 1949 s

Time = 5.815
Courant Number mean: 0.205192 max: 0.485854
diagonal:  Solving for T, Initial residual = 0, Final residual = 0, No Iterations 0
diagonal:  Solving for T, Initial residual = 0, Final residual = 0, No Iterations 0
diagonal:  Solving for T, Initial residual = 0, Final residual = 0, No Iterations 0
diagonal:  Solving for T, Initial residual = 0, Final residual = 0, No Iterations 0
 T goes from min(T) [0 0 0 0 0 0 0] -0.0998897 to max(T) [0 0 0 0 0 0 0] 0.60844

ExecutionTime = 157.83 s  ClockTime = 1950 s

Time = 5.82
Courant Number mean: 0.205366 max: 0.484955
diagonal:  Solving for T, Initial residual = 0, Final residual = 0, No Iterations 0
diagonal:  Solving for T, Initial residual = 0, Final residual = 0, No Iterations 0
diagonal:  Solving for T, Initial residual = 0, Final residual = 0, No Iterations 0
diagonal:  Solving for T, Initial residual = 0, Final residual = 0, No Iterations 0
 T goes from min(T) [0 0 0 0 0 0 0] -0.0992749 to max(T) [0 0 0 0 0 0 0] 0.608857

ExecutionTime = 157.96 s  ClockTime = 1951 s

Time = 5.825
Courant Number mean: 0.205535 max: 0.484027
diagonal:  Solving for T, Initial residual = 0, Final residual = 0, No Iterations 0
diagonal:  Solving for T, Initial residual = 0, Final residual = 0, No Iterations 0
diagonal:  Solving for T, Initial residual = 0, Final residual = 0, No Iterations 0
diagonal:  Solving for T, Initial residual = 0, Final residual = 0, No Iterations 0
 T goes from min(T) [0 0 0 0 0 0 0] -0.0983258 to max(T) [0 0 0 0 0 0 0] 0.609185

ExecutionTime = 158.1 s  ClockTime = 1953 s

Time = 5.83
Courant Number mean: 0.205703 max: 0.483158
diagonal:  Solving for T, Initial residual = 0, Final residual = 0, No Iterations 0
diagonal:  Solving for T, Initial residual = 0, Final residual = 0, No Iterations 0
diagonal:  Solving for T, Initial residual = 0, Final residual = 0, No Iterations 0
diagonal:  Solving for T, Initial residual = 0, Final residual = 0, No Iterations 0
 T goes from min(T) [0 0 0 0 0 0 0] -0.0976952 to max(T) [0 0 0 0 0 0 0] 0.609424

ExecutionTime = 158.24 s  ClockTime = 1954 s

Time = 5.835
Courant Number mean: 0.205868 max: 0.482271
diagonal:  Solving for T, Initial residual = 0, Final residual = 0, No Iterations 0
diagonal:  Solving for T, Initial residual = 0, Final residual = 0, No Iterations 0
diagonal:  Solving for T, Initial residual = 0, Final residual = 0, No Iterations 0
diagonal:  Solving for T, Initial residual = 0, Final residual = 0, No Iterations 0
 T goes from min(T) [0 0 0 0 0 0 0] -0.0985843 to max(T) [0 0 0 0 0 0 0] 0.609576

ExecutionTime = 158.36 s  ClockTime = 1955 s

Time = 5.84
Courant Number mean: 0.20603 max: 0.481355
diagonal:  Solving for T, Initial residual = 0, Final residual = 0, No Iterations 0
diagonal:  Solving for T, Initial residual = 0, Final residual = 0, No Iterations 0
diagonal:  Solving for T, Initial residual = 0, Final residual = 0, No Iterations 0
diagonal:  Solving for T, Initial residual = 0, Final residual = 0, No Iterations 0
 T goes from min(T) [0 0 0 0 0 0 0] -0.0992049 to max(T) [0 0 0 0 0 0 0] 0.609642

ExecutionTime = 158.5 s  ClockTime = 1956 s

Time = 5.845
Courant Number mean: 0.20619 max: 0.480411
diagonal:  Solving for T, Initial residual = 0, Final residual = 0, No Iterations 0
diagonal:  Solving for T, Initial residual = 0, Final residual = 0, No Iterations 0
diagonal:  Solving for T, Initial residual = 0, Final residual = 0, No Iterations 0
diagonal:  Solving for T, Initial residual = 0, Final residual = 0, No Iterations 0
 T goes from min(T) [0 0 0 0 0 0 0] -0.0995564 to max(T) [0 0 0 0 0 0 0] 0.609623

ExecutionTime = 158.63 s  ClockTime = 1958 s

Time = 5.85
Courant Number mean: 0.206353 max: 0.479611
diagonal:  Solving for T, Initial residual = 0, Final residual = 0, No Iterations 0
diagonal:  Solving for T, Initial residual = 0, Final residual = 0, No Iterations 0
diagonal:  Solving for T, Initial residual = 0, Final residual = 0, No Iterations 0
diagonal:  Solving for T, Initial residual = 0, Final residual = 0, No Iterations 0
 T goes from min(T) [0 0 0 0 0 0 0] -0.0996398 to max(T) [0 0 0 0 0 0 0] 0.609521

ExecutionTime = 158.76 s  ClockTime = 1959 s

Time = 5.855
Courant Number mean: 0.206516 max: 0.478791
diagonal:  Solving for T, Initial residual = 0, Final residual = 0, No Iterations 0
diagonal:  Solving for T, Initial residual = 0, Final residual = 0, No Iterations 0
diagonal:  Solving for T, Initial residual = 0, Final residual = 0, No Iterations 0
diagonal:  Solving for T, Initial residual = 0, Final residual = 0, No Iterations 0
 T goes from min(T) [0 0 0 0 0 0 0] -0.0994581 to max(T) [0 0 0 0 0 0 0] 0.609336

ExecutionTime = 158.94 s  ClockTime = 1961 s

Time = 5.86
Courant Number mean: 0.206677 max: 0.477942
diagonal:  Solving for T, Initial residual = 0, Final residual = 0, No Iterations 0
diagonal:  Solving for T, Initial residual = 0, Final residual = 0, No Iterations 0
diagonal:  Solving for T, Initial residual = 0, Final residual = 0, No Iterations 0
diagonal:  Solving for T, Initial residual = 0, Final residual = 0, No Iterations 0
 T goes from min(T) [0 0 0 0 0 0 0] -0.0990156 to max(T) [0 0 0 0 0 0 0] 0.609071

ExecutionTime = 159.07 s  ClockTime = 1962 s

Time = 5.865
Courant Number mean: 0.206833 max: 0.477065
diagonal:  Solving for T, Initial residual = 0, Final residual = 0, No Iterations 0
diagonal:  Solving for T, Initial residual = 0, Final residual = 0, No Iterations 0
diagonal:  Solving for T, Initial residual = 0, Final residual = 0, No Iterations 0
diagonal:  Solving for T, Initial residual = 0, Final residual = 0, No Iterations 0
 T goes from min(T) [0 0 0 0 0 0 0] -0.0983185 to max(T) [0 0 0 0 0 0 0] 0.609195

ExecutionTime = 159.19 s  ClockTime = 1963 s

Time = 5.87
Courant Number mean: 0.206986 max: 0.47616
diagonal:  Solving for T, Initial residual = 0, Final residual = 0, No Iterations 0
diagonal:  Solving for T, Initial residual = 0, Final residual = 0, No Iterations 0
diagonal:  Solving for T, Initial residual = 0, Final residual = 0, No Iterations 0
diagonal:  Solving for T, Initial residual = 0, Final residual = 0, No Iterations 0
 T goes from min(T) [0 0 0 0 0 0 0] -0.0973741 to max(T) [0 0 0 0 0 0 0] 0.609264

ExecutionTime = 159.33 s  ClockTime = 1964 s

Time = 5.875
Courant Number mean: 0.207137 max: 0.475227
diagonal:  Solving for T, Initial residual = 0, Final residual = 0, No Iterations 0
diagonal:  Solving for T, Initial residual = 0, Final residual = 0, No Iterations 0
diagonal:  Solving for T, Initial residual = 0, Final residual = 0, No Iterations 0
diagonal:  Solving for T, Initial residual = 0, Final residual = 0, No Iterations 0
 T goes from min(T) [0 0 0 0 0 0 0] -0.09767 to max(T) [0 0 0 0 0 0 0] 0.609268

ExecutionTime = 159.45 s  ClockTime = 1965 s

Time = 5.88
Courant Number mean: 0.207288 max: 0.474266
diagonal:  Solving for T, Initial residual = 0, Final residual = 0, No Iterations 0
diagonal:  Solving for T, Initial residual = 0, Final residual = 0, No Iterations 0
diagonal:  Solving for T, Initial residual = 0, Final residual = 0, No Iterations 0
diagonal:  Solving for T, Initial residual = 0, Final residual = 0, No Iterations 0
 T goes from min(T) [0 0 0 0 0 0 0] -0.098324 to max(T) [0 0 0 0 0 0 0] 0.609209

ExecutionTime = 159.58 s  ClockTime = 1966 s

Time = 5.885
Courant Number mean: 0.207438 max: 0.473277
diagonal:  Solving for T, Initial residual = 0, Final residual = 0, No Iterations 0
diagonal:  Solving for T, Initial residual = 0, Final residual = 0, No Iterations 0
diagonal:  Solving for T, Initial residual = 0, Final residual = 0, No Iterations 0
diagonal:  Solving for T, Initial residual = 0, Final residual = 0, No Iterations 0
 T goes from min(T) [0 0 0 0 0 0 0] -0.0987119 to max(T) [0 0 0 0 0 0 0] 0.609088

ExecutionTime = 159.71 s  ClockTime = 1967 s

Time = 5.89
Courant Number mean: 0.207589 max: 0.472261
diagonal:  Solving for T, Initial residual = 0, Final residual = 0, No Iterations 0
diagonal:  Solving for T, Initial residual = 0, Final residual = 0, No Iterations 0
diagonal:  Solving for T, Initial residual = 0, Final residual = 0, No Iterations 0
diagonal:  Solving for T, Initial residual = 0, Final residual = 0, No Iterations 0
 T goes from min(T) [0 0 0 0 0 0 0] -0.0988341 to max(T) [0 0 0 0 0 0 0] 0.608906

ExecutionTime = 159.84 s  ClockTime = 1968 s

Time = 5.895
Courant Number mean: 0.207739 max: 0.471218
diagonal:  Solving for T, Initial residual = 0, Final residual = 0, No Iterations 0
diagonal:  Solving for T, Initial residual = 0, Final residual = 0, No Iterations 0
diagonal:  Solving for T, Initial residual = 0, Final residual = 0, No Iterations 0
diagonal:  Solving for T, Initial residual = 0, Final residual = 0, No Iterations 0
 T goes from min(T) [0 0 0 0 0 0 0] -0.098991 to max(T) [0 0 0 0 0 0 0] 0.608666

ExecutionTime = 159.97 s  ClockTime = 1969 s

Time = 5.9
Courant Number mean: 0.207884 max: 0.470149
diagonal:  Solving for T, Initial residual = 0, Final residual = 0, No Iterations 0
diagonal:  Solving for T, Initial residual = 0, Final residual = 0, No Iterations 0
diagonal:  Solving for T, Initial residual = 0, Final residual = 0, No Iterations 0
diagonal:  Solving for T, Initial residual = 0, Final residual = 0, No Iterations 0
 T goes from min(T) [0 0 0 0 0 0 0] -0.0991202 to max(T) [0 0 0 0 0 0 0] 0.608369

ExecutionTime = 160.1 s  ClockTime = 1970 s

Time = 5.905
Courant Number mean: 0.208026 max: 0.469292
diagonal:  Solving for T, Initial residual = 0, Final residual = 0, No Iterations 0
diagonal:  Solving for T, Initial residual = 0, Final residual = 0, No Iterations 0
diagonal:  Solving for T, Initial residual = 0, Final residual = 0, No Iterations 0
diagonal:  Solving for T, Initial residual = 0, Final residual = 0, No Iterations 0
 T goes from min(T) [0 0 0 0 0 0 0] -0.0990611 to max(T) [0 0 0 0 0 0 0] 0.608261

ExecutionTime = 160.23 s  ClockTime = 1971 s

Time = 5.91
Courant Number mean: 0.208166 max: 0.46844
diagonal:  Solving for T, Initial residual = 0, Final residual = 0, No Iterations 0
diagonal:  Solving for T, Initial residual = 0, Final residual = 0, No Iterations 0
diagonal:  Solving for T, Initial residual = 0, Final residual = 0, No Iterations 0
diagonal:  Solving for T, Initial residual = 0, Final residual = 0, No Iterations 0
 T goes from min(T) [0 0 0 0 0 0 0] -0.0988189 to max(T) [0 0 0 0 0 0 0] 0.608644

ExecutionTime = 160.35 s  ClockTime = 1972 s

Time = 5.915
Courant Number mean: 0.208302 max: 0.46756
diagonal:  Solving for T, Initial residual = 0, Final residual = 0, No Iterations 0
diagonal:  Solving for T, Initial residual = 0, Final residual = 0, No Iterations 0
diagonal:  Solving for T, Initial residual = 0, Final residual = 0, No Iterations 0
diagonal:  Solving for T, Initial residual = 0, Final residual = 0, No Iterations 0
 T goes from min(T) [0 0 0 0 0 0 0] -0.0983999 to max(T) [0 0 0 0 0 0 0] 0.608968

ExecutionTime = 160.48 s  ClockTime = 1973 s

Time = 5.92
Courant Number mean: 0.208436 max: 0.466654
diagonal:  Solving for T, Initial residual = 0, Final residual = 0, No Iterations 0
diagonal:  Solving for T, Initial residual = 0, Final residual = 0, No Iterations 0
diagonal:  Solving for T, Initial residual = 0, Final residual = 0, No Iterations 0
diagonal:  Solving for T, Initial residual = 0, Final residual = 0, No Iterations 0
 T goes from min(T) [0 0 0 0 0 0 0] -0.0978109 to max(T) [0 0 0 0 0 0 0] 0.609234

ExecutionTime = 160.61 s  ClockTime = 1974 s

Time = 5.925
Courant Number mean: 0.208569 max: 0.465719
diagonal:  Solving for T, Initial residual = 0, Final residual = 0, No Iterations 0
diagonal:  Solving for T, Initial residual = 0, Final residual = 0, No Iterations 0
diagonal:  Solving for T, Initial residual = 0, Final residual = 0, No Iterations 0
diagonal:  Solving for T, Initial residual = 0, Final residual = 0, No Iterations 0
 T goes from min(T) [0 0 0 0 0 0 0] -0.0970596 to max(T) [0 0 0 0 0 0 0] 0.609443

ExecutionTime = 160.74 s  ClockTime = 1975 s

Time = 5.93
Courant Number mean: 0.208703 max: 0.464758
diagonal:  Solving for T, Initial residual = 0, Final residual = 0, No Iterations 0
diagonal:  Solving for T, Initial residual = 0, Final residual = 0, No Iterations 0
diagonal:  Solving for T, Initial residual = 0, Final residual = 0, No Iterations 0
diagonal:  Solving for T, Initial residual = 0, Final residual = 0, No Iterations 0
 T goes from min(T) [0 0 0 0 0 0 0] -0.0976499 to max(T) [0 0 0 0 0 0 0] 0.609597

ExecutionTime = 160.87 s  ClockTime = 1976 s

Time = 5.935
Courant Number mean: 0.208834 max: 0.46377
diagonal:  Solving for T, Initial residual = 0, Final residual = 0, No Iterations 0
diagonal:  Solving for T, Initial residual = 0, Final residual = 0, No Iterations 0
diagonal:  Solving for T, Initial residual = 0, Final residual = 0, No Iterations 0
diagonal:  Solving for T, Initial residual = 0, Final residual = 0, No Iterations 0
 T goes from min(T) [0 0 0 0 0 0 0] -0.0981031 to max(T) [0 0 0 0 0 0 0] 0.609698

ExecutionTime = 161.01 s  ClockTime = 1977 s

Time = 5.94
Courant Number mean: 0.208964 max: 0.462755
diagonal:  Solving for T, Initial residual = 0, Final residual = 0, No Iterations 0
diagonal:  Solving for T, Initial residual = 0, Final residual = 0, No Iterations 0
diagonal:  Solving for T, Initial residual = 0, Final residual = 0, No Iterations 0
diagonal:  Solving for T, Initial residual = 0, Final residual = 0, No Iterations 0
 T goes from min(T) [0 0 0 0 0 0 0] -0.0983659 to max(T) [0 0 0 0 0 0 0] 0.609747

ExecutionTime = 161.13 s  ClockTime = 1978 s

Time = 5.945
Courant Number mean: 0.20909 max: 0.461714
diagonal:  Solving for T, Initial residual = 0, Final residual = 0, No Iterations 0
diagonal:  Solving for T, Initial residual = 0, Final residual = 0, No Iterations 0
diagonal:  Solving for T, Initial residual = 0, Final residual = 0, No Iterations 0
diagonal:  Solving for T, Initial residual = 0, Final residual = 0, No Iterations 0
 T goes from min(T) [0 0 0 0 0 0 0] -0.0984417 to max(T) [0 0 0 0 0 0 0] 0.609745

ExecutionTime = 161.26 s  ClockTime = 1979 s

Time = 5.95
Courant Number mean: 0.209213 max: 0.460646
diagonal:  Solving for T, Initial residual = 0, Final residual = 0, No Iterations 0
diagonal:  Solving for T, Initial residual = 0, Final residual = 0, No Iterations 0
diagonal:  Solving for T, Initial residual = 0, Final residual = 0, No Iterations 0
diagonal:  Solving for T, Initial residual = 0, Final residual = 0, No Iterations 0
 T goes from min(T) [0 0 0 0 0 0 0] -0.0983348 to max(T) [0 0 0 0 0 0 0] 0.609696

ExecutionTime = 161.39 s  ClockTime = 1980 s

Time = 5.955
Courant Number mean: 0.209335 max: 0.459553
diagonal:  Solving for T, Initial residual = 0, Final residual = 0, No Iterations 0
diagonal:  Solving for T, Initial residual = 0, Final residual = 0, No Iterations 0
diagonal:  Solving for T, Initial residual = 0, Final residual = 0, No Iterations 0
diagonal:  Solving for T, Initial residual = 0, Final residual = 0, No Iterations 0
 T goes from min(T) [0 0 0 0 0 0 0] -0.098256 to max(T) [0 0 0 0 0 0 0] 0.609599

ExecutionTime = 161.51 s  ClockTime = 1981 s

Time = 5.96
Courant Number mean: 0.209453 max: 0.458435
diagonal:  Solving for T, Initial residual = 0, Final residual = 0, No Iterations 0
diagonal:  Solving for T, Initial residual = 0, Final residual = 0, No Iterations 0
diagonal:  Solving for T, Initial residual = 0, Final residual = 0, No Iterations 0
diagonal:  Solving for T, Initial residual = 0, Final residual = 0, No Iterations 0
 T goes from min(T) [0 0 0 0 0 0 0] -0.0984862 to max(T) [0 0 0 0 0 0 0] 0.609457

ExecutionTime = 161.64 s  ClockTime = 1982 s

Time = 5.965
Courant Number mean: 0.209569 max: 0.457404
diagonal:  Solving for T, Initial residual = 0, Final residual = 0, No Iterations 0
diagonal:  Solving for T, Initial residual = 0, Final residual = 0, No Iterations 0
diagonal:  Solving for T, Initial residual = 0, Final residual = 0, No Iterations 0
diagonal:  Solving for T, Initial residual = 0, Final residual = 0, No Iterations 0
 T goes from min(T) [0 0 0 0 0 0 0] -0.0985981 to max(T) [0 0 0 0 0 0 0] 0.609271

ExecutionTime = 161.78 s  ClockTime = 1984 s

Time = 5.97
Courant Number mean: 0.209685 max: 0.4565
diagonal:  Solving for T, Initial residual = 0, Final residual = 0, No Iterations 0
diagonal:  Solving for T, Initial residual = 0, Final residual = 0, No Iterations 0
diagonal:  Solving for T, Initial residual = 0, Final residual = 0, No Iterations 0
diagonal:  Solving for T, Initial residual = 0, Final residual = 0, No Iterations 0
 T goes from min(T) [0 0 0 0 0 0 0] -0.0985965 to max(T) [0 0 0 0 0 0 0] 0.609043

ExecutionTime = 161.91 s  ClockTime = 1985 s

Time = 5.975
Courant Number mean: 0.209799 max: 0.45557
diagonal:  Solving for T, Initial residual = 0, Final residual = 0, No Iterations 0
diagonal:  Solving for T, Initial residual = 0, Final residual = 0, No Iterations 0
diagonal:  Solving for T, Initial residual = 0, Final residual = 0, No Iterations 0
diagonal:  Solving for T, Initial residual = 0, Final residual = 0, No Iterations 0
 T goes from min(T) [0 0 0 0 0 0 0] -0.0984869 to max(T) [0 0 0 0 0 0 0] 0.608879

ExecutionTime = 162.05 s  ClockTime = 1986 s

Time = 5.98
Courant Number mean: 0.209909 max: 0.454612
diagonal:  Solving for T, Initial residual = 0, Final residual = 0, No Iterations 0
diagonal:  Solving for T, Initial residual = 0, Final residual = 0, No Iterations 0
diagonal:  Solving for T, Initial residual = 0, Final residual = 0, No Iterations 0
diagonal:  Solving for T, Initial residual = 0, Final residual = 0, No Iterations 0
 T goes from min(T) [0 0 0 0 0 0 0] -0.098275 to max(T) [0 0 0 0 0 0 0] 0.60907

ExecutionTime = 162.18 s  ClockTime = 1987 s

Time = 5.985
Courant Number mean: 0.210016 max: 0.453629
diagonal:  Solving for T, Initial residual = 0, Final residual = 0, No Iterations 0
diagonal:  Solving for T, Initial residual = 0, Final residual = 0, No Iterations 0
diagonal:  Solving for T, Initial residual = 0, Final residual = 0, No Iterations 0
diagonal:  Solving for T, Initial residual = 0, Final residual = 0, No Iterations 0
 T goes from min(T) [0 0 0 0 0 0 0] -0.0979666 to max(T) [0 0 0 0 0 0 0] 0.609229

ExecutionTime = 162.31 s  ClockTime = 1988 s

Time = 5.99
Courant Number mean: 0.210121 max: 0.45262
diagonal:  Solving for T, Initial residual = 0, Final residual = 0, No Iterations 0
diagonal:  Solving for T, Initial residual = 0, Final residual = 0, No Iterations 0
diagonal:  Solving for T, Initial residual = 0, Final residual = 0, No Iterations 0
diagonal:  Solving for T, Initial residual = 0, Final residual = 0, No Iterations 0
 T goes from min(T) [0 0 0 0 0 0 0] -0.0975678 to max(T) [0 0 0 0 0 0 0] 0.609357

ExecutionTime = 162.46 s  ClockTime = 1989 s

Time = 5.995
Courant Number mean: 0.210221 max: 0.451585
diagonal:  Solving for T, Initial residual = 0, Final residual = 0, No Iterations 0
diagonal:  Solving for T, Initial residual = 0, Final residual = 0, No Iterations 0
diagonal:  Solving for T, Initial residual = 0, Final residual = 0, No Iterations 0
diagonal:  Solving for T, Initial residual = 0, Final residual = 0, No Iterations 0
 T goes from min(T) [0 0 0 0 0 0 0] -0.0970849 to max(T) [0 0 0 0 0 0 0] 0.609455

ExecutionTime = 162.59 s  ClockTime = 1990 s

Time = 6
Courant Number mean: 0.210317 max: 0.450525
diagonal:  Solving for T, Initial residual = 0, Final residual = 0, No Iterations 0
diagonal:  Solving for T, Initial residual = 0, Final residual = 0, No Iterations 0
diagonal:  Solving for T, Initial residual = 0, Final residual = 0, No Iterations 0
diagonal:  Solving for T, Initial residual = 0, Final residual = 0, No Iterations 0
 T goes from min(T) [0 0 0 0 0 0 0] -0.0974427 to max(T) [0 0 0 0 0 0 0] 0.609526

ExecutionTime = 162.73 s  ClockTime = 1991 s

End

