/*---------------------------------------------------------------------------*\
| =========                 |                                                 |
| \\      /  F ield         | OpenFOAM: The Open Source CFD Toolbox           |
|  \\    /   O peration     | Version:  dev                                   |
|   \\  /    A nd           | Web:      www.OpenFOAM.org                      |
|    \\/     M anipulation  |                                                 |
\*---------------------------------------------------------------------------*/
Build  : dev-90f39e0d894d
Exec   : scalarDeformationWithGhosts explicit -case orthogonal/120x60/c10_explicit
Date   : May 23 2017
Time   : 20:31:43
Host   : "sws02hw.private.rdg.ac.uk"
PID    : 22963
Case   : orthogonal/120x60/c10_explicit
nProcs : 1
sigFpe : Enabling floating point exception trapping (FOAM_SIGFPE).
fileModificationChecking : Monitoring run-time modified files using timeStampMaster (fileModificationSkew 10)
allowSystemOperations : Allowing user-supplied system call operations

// * * * * * * * * * * * * * * * * * * * * * * * * * * * * * * * * * * * * * //
Create time

Create mesh for time = 0

Reading field T

Reading fields phi (compulsory), U and Uf (optional)

Calculating owner stencils
Calculating neighbour stencils

Calculating scalar transport

Courant Number mean: 3.74505 max: 7.3529
Time = 0.1
Courant Number mean: 3.74043 max: 7.34389
diagonal:  Solving for T, Initial residual = 0, Final residual = 0, No Iterations 0
diagonal:  Solving for T, Initial residual = 0, Final residual = 0, No Iterations 0
diagonal:  Solving for T, Initial residual = 0, Final residual = 0, No Iterations 0
diagonal:  Solving for T, Initial residual = 0, Final residual = 0, No Iterations 0
 T goes from min(T) [0 0 0 0 0 0 0] -0.0385216 to max(T) [0 0 0 0 0 0 0] 0.982303

ExecutionTime = 2.19 s  ClockTime = 43 s

Time = 0.2
Courant Number mean: 3.73065 max: 7.31493
diagonal:  Solving for T, Initial residual = 0, Final residual = 0, No Iterations 0
diagonal:  Solving for T, Initial residual = 0, Final residual = 0, No Iterations 0
diagonal:  Solving for T, Initial residual = 0, Final residual = 0, No Iterations 0
diagonal:  Solving for T, Initial residual = 0, Final residual = 0, No Iterations 0
 T goes from min(T) [0 0 0 0 0 0 0] -0.202262 to max(T) [0 0 0 0 0 0 0] 0.973899

ExecutionTime = 2.33 s  ClockTime = 46 s

Time = 0.3
Courant Number mean: 3.71308 max: 7.26625
diagonal:  Solving for T, Initial residual = 0, Final residual = 0, No Iterations 0
diagonal:  Solving for T, Initial residual = 0, Final residual = 0, No Iterations 0
diagonal:  Solving for T, Initial residual = 0, Final residual = 0, No Iterations 0
diagonal:  Solving for T, Initial residual = 0, Final residual = 0, No Iterations 0
 T goes from min(T) [0 0 0 0 0 0 0] -1.69315 to max(T) [0 0 0 0 0 0 0] 2.70566

ExecutionTime = 2.45 s  ClockTime = 48 s

Time = 0.4
Courant Number mean: 3.68794 max: 7.19804
diagonal:  Solving for T, Initial residual = 0, Final residual = 0, No Iterations 0
diagonal:  Solving for T, Initial residual = 0, Final residual = 0, No Iterations 0
diagonal:  Solving for T, Initial residual = 0, Final residual = 0, No Iterations 0
diagonal:  Solving for T, Initial residual = 0, Final residual = 0, No Iterations 0
 T goes from min(T) [0 0 0 0 0 0 0] -1927.26 to max(T) [0 0 0 0 0 0 0] 1771.48

ExecutionTime = 2.58 s  ClockTime = 51 s

Time = 0.5
Courant Number mean: 3.65801 max: 7.11048
diagonal:  Solving for T, Initial residual = 0, Final residual = 0, No Iterations 0
diagonal:  Solving for T, Initial residual = 0, Final residual = 0, No Iterations 0
diagonal:  Solving for T, Initial residual = 0, Final residual = 0, No Iterations 0
diagonal:  Solving for T, Initial residual = 0, Final residual = 0, No Iterations 0
 T goes from min(T) [0 0 0 0 0 0 0] -2.49083e+06 to max(T) [0 0 0 0 0 0 0] 3.00334e+06

ExecutionTime = 2.7 s  ClockTime = 53 s

Time = 0.6
Courant Number mean: 3.61981 max: 7.0058
diagonal:  Solving for T, Initial residual = 0, Final residual = 0, No Iterations 0
diagonal:  Solving for T, Initial residual = 0, Final residual = 0, No Iterations 0
diagonal:  Solving for T, Initial residual = 0, Final residual = 0, No Iterations 0
diagonal:  Solving for T, Initial residual = 0, Final residual = 0, No Iterations 0
 T goes from min(T) [0 0 0 0 0 0 0] -3.29528e+09 to max(T) [0 0 0 0 0 0 0] 3.8096e+09

ExecutionTime = 2.83 s  ClockTime = 55 s

Time = 0.7
Courant Number mean: 3.57753 max: 6.88251
diagonal:  Solving for T, Initial residual = 0, Final residual = 0, No Iterations 0
diagonal:  Solving for T, Initial residual = 0, Final residual = 0, No Iterations 0
diagonal:  Solving for T, Initial residual = 0, Final residual = 0, No Iterations 0
diagonal:  Solving for T, Initial residual = 0, Final residual = 0, No Iterations 0
 T goes from min(T) [0 0 0 0 0 0 0] -4.35455e+12 to max(T) [0 0 0 0 0 0 0] 5.16637e+12

ExecutionTime = 2.95 s  ClockTime = 58 s

Time = 0.8
Courant Number mean: 3.52941 max: 6.74122
diagonal:  Solving for T, Initial residual = 0, Final residual = 0, No Iterations 0
diagonal:  Solving for T, Initial residual = 0, Final residual = 0, No Iterations 0
diagonal:  Solving for T, Initial residual = 0, Final residual = 0, No Iterations 0
diagonal:  Solving for T, Initial residual = 0, Final residual = 0, No Iterations 0
 T goes from min(T) [0 0 0 0 0 0 0] -5.42625e+15 to max(T) [0 0 0 0 0 0 0] 5.33695e+15

ExecutionTime = 3.07 s  ClockTime = 60 s

Time = 0.9
Courant Number mean: 3.4759 max: 6.58252
diagonal:  Solving for T, Initial residual = 0, Final residual = 0, No Iterations 0
diagonal:  Solving for T, Initial residual = 0, Final residual = 0, No Iterations 0
diagonal:  Solving for T, Initial residual = 0, Final residual = 0, No Iterations 0
diagonal:  Solving for T, Initial residual = 0, Final residual = 0, No Iterations 0
 T goes from min(T) [0 0 0 0 0 0 0] -6.00483e+18 to max(T) [0 0 0 0 0 0 0] 5.92419e+18

ExecutionTime = 3.19 s  ClockTime = 62 s

Time = 1
Courant Number mean: 3.41991 max: 6.40698
diagonal:  Solving for T, Initial residual = 0, Final residual = 0, No Iterations 0
diagonal:  Solving for T, Initial residual = 0, Final residual = 0, No Iterations 0
diagonal:  Solving for T, Initial residual = 0, Final residual = 0, No Iterations 0
diagonal:  Solving for T, Initial residual = 0, Final residual = 0, No Iterations 0
 T goes from min(T) [0 0 0 0 0 0 0] -5.71564e+21 to max(T) [0 0 0 0 0 0 0] 5.06892e+21

ExecutionTime = 3.31 s  ClockTime = 65 s

Time = 1.1
Courant Number mean: 3.3594 max: 6.21687
diagonal:  Solving for T, Initial residual = 0, Final residual = 0, No Iterations 0
diagonal:  Solving for T, Initial residual = 0, Final residual = 0, No Iterations 0
diagonal:  Solving for T, Initial residual = 0, Final residual = 0, No Iterations 0
diagonal:  Solving for T, Initial residual = 0, Final residual = 0, No Iterations 0
 T goes from min(T) [0 0 0 0 0 0 0] -5.45259e+24 to max(T) [0 0 0 0 0 0 0] 4.51652e+24

ExecutionTime = 3.44 s  ClockTime = 67 s

Time = 1.2
Courant Number mean: 3.29838 max: 6.01131
diagonal:  Solving for T, Initial residual = 0, Final residual = 0, No Iterations 0
diagonal:  Solving for T, Initial residual = 0, Final residual = 0, No Iterations 0
diagonal:  Solving for T, Initial residual = 0, Final residual = 0, No Iterations 0
diagonal:  Solving for T, Initial residual = 0, Final residual = 0, No Iterations 0
 T goes from min(T) [0 0 0 0 0 0 0] -3.99829e+27 to max(T) [0 0 0 0 0 0 0] 3.41884e+27

ExecutionTime = 3.57 s  ClockTime = 70 s

Time = 1.3
Courant Number mean: 3.23613 max: 5.79124
diagonal:  Solving for T, Initial residual = 0, Final residual = 0, No Iterations 0
diagonal:  Solving for T, Initial residual = 0, Final residual = 0, No Iterations 0
diagonal:  Solving for T, Initial residual = 0, Final residual = 0, No Iterations 0
diagonal:  Solving for T, Initial residual = 0, Final residual = 0, No Iterations 0
 T goes from min(T) [0 0 0 0 0 0 0] -2.56366e+30 to max(T) [0 0 0 0 0 0 0] 2.54932e+30

ExecutionTime = 3.69 s  ClockTime = 72 s

Time = 1.4
Courant Number mean: 3.17444 max: 5.55759
diagonal:  Solving for T, Initial residual = 0, Final residual = 0, No Iterations 0
diagonal:  Solving for T, Initial residual = 0, Final residual = 0, No Iterations 0
diagonal:  Solving for T, Initial residual = 0, Final residual = 0, No Iterations 0
diagonal:  Solving for T, Initial residual = 0, Final residual = 0, No Iterations 0
 T goes from min(T) [0 0 0 0 0 0 0] -1.42373e+33 to max(T) [0 0 0 0 0 0 0] 1.49849e+33

ExecutionTime = 3.8 s  ClockTime = 74 s

Time = 1.5
Courant Number mean: 3.11466 max: 5.31124
diagonal:  Solving for T, Initial residual = 0, Final residual = 0, No Iterations 0
diagonal:  Solving for T, Initial residual = 0, Final residual = 0, No Iterations 0
diagonal:  Solving for T, Initial residual = 0, Final residual = 0, No Iterations 0
diagonal:  Solving for T, Initial residual = 0, Final residual = 0, No Iterations 0
 T goes from min(T) [0 0 0 0 0 0 0] -6.4996e+35 to max(T) [0 0 0 0 0 0 0] 7.70654e+35

ExecutionTime = 3.92 s  ClockTime = 76 s

Time = 1.6
Courant Number mean: 3.05092 max: 5.05431
diagonal:  Solving for T, Initial residual = 0, Final residual = 0, No Iterations 0
diagonal:  Solving for T, Initial residual = 0, Final residual = 0, No Iterations 0
diagonal:  Solving for T, Initial residual = 0, Final residual = 0, No Iterations 0
diagonal:  Solving for T, Initial residual = 0, Final residual = 0, No Iterations 0
 T goes from min(T) [0 0 0 0 0 0 0] -3.00178e+38 to max(T) [0 0 0 0 0 0 0] 3.38925e+38

ExecutionTime = 4.04 s  ClockTime = 79 s

Time = 1.7
Courant Number mean: 2.98561 max: 4.78661
diagonal:  Solving for T, Initial residual = 0, Final residual = 0, No Iterations 0
diagonal:  Solving for T, Initial residual = 0, Final residual = 0, No Iterations 0
diagonal:  Solving for T, Initial residual = 0, Final residual = 0, No Iterations 0
diagonal:  Solving for T, Initial residual = 0, Final residual = 0, No Iterations 0
 T goes from min(T) [0 0 0 0 0 0 0] -1.0321e+41 to max(T) [0 0 0 0 0 0 0] 1.09648e+41

ExecutionTime = 4.17 s  ClockTime = 81 s

Time = 1.8
Courant Number mean: 2.91757 max: 4.50931
diagonal:  Solving for T, Initial residual = 0, Final residual = 0, No Iterations 0
diagonal:  Solving for T, Initial residual = 0, Final residual = 0, No Iterations 0
diagonal:  Solving for T, Initial residual = 0, Final residual = 0, No Iterations 0
diagonal:  Solving for T, Initial residual = 0, Final residual = 0, No Iterations 0
 T goes from min(T) [0 0 0 0 0 0 0] -3.26899e+43 to max(T) [0 0 0 0 0 0 0] 2.96608e+43

ExecutionTime = 4.29 s  ClockTime = 83 s

Time = 1.9
Courant Number mean: 2.84719 max: 4.22357
diagonal:  Solving for T, Initial residual = 0, Final residual = 0, No Iterations 0
diagonal:  Solving for T, Initial residual = 0, Final residual = 0, No Iterations 0
diagonal:  Solving for T, Initial residual = 0, Final residual = 0, No Iterations 0
diagonal:  Solving for T, Initial residual = 0, Final residual = 0, No Iterations 0
 T goes from min(T) [0 0 0 0 0 0 0] -7.50077e+45 to max(T) [0 0 0 0 0 0 0] 6.12432e+45

ExecutionTime = 4.44 s  ClockTime = 86 s

Time = 2
Courant Number mean: 2.77572 max: 3.93053
diagonal:  Solving for T, Initial residual = 0, Final residual = 0, No Iterations 0
diagonal:  Solving for T, Initial residual = 0, Final residual = 0, No Iterations 0
diagonal:  Solving for T, Initial residual = 0, Final residual = 0, No Iterations 0
diagonal:  Solving for T, Initial residual = 0, Final residual = 0, No Iterations 0
 T goes from min(T) [0 0 0 0 0 0 0] -1.28619e+48 to max(T) [0 0 0 0 0 0 0] 1.21052e+48

ExecutionTime = 4.58 s  ClockTime = 89 s

Time = 2.1
Courant Number mean: 2.70211 max: 3.63193
diagonal:  Solving for T, Initial residual = 0, Final residual = 0, No Iterations 0
diagonal:  Solving for T, Initial residual = 0, Final residual = 0, No Iterations 0
diagonal:  Solving for T, Initial residual = 0, Final residual = 0, No Iterations 0
diagonal:  Solving for T, Initial residual = 0, Final residual = 0, No Iterations 0
 T goes from min(T) [0 0 0 0 0 0 0] -1.77883e+50 to max(T) [0 0 0 0 0 0 0] 1.77759e+50

ExecutionTime = 4.7 s  ClockTime = 91 s

Time = 2.2
Courant Number mean: 2.62778 max: 3.32829
diagonal:  Solving for T, Initial residual = 0, Final residual = 0, No Iterations 0
diagonal:  Solving for T, Initial residual = 0, Final residual = 0, No Iterations 0
diagonal:  Solving for T, Initial residual = 0, Final residual = 0, No Iterations 0
diagonal:  Solving for T, Initial residual = 0, Final residual = 0, No Iterations 0
 T goes from min(T) [0 0 0 0 0 0 0] -1.67868e+52 to max(T) [0 0 0 0 0 0 0] 1.99393e+52

ExecutionTime = 4.83 s  ClockTime = 94 s

Time = 2.3
Courant Number mean: 2.55235 max: 3.0209
diagonal:  Solving for T, Initial residual = 0, Final residual = 0, No Iterations 0
diagonal:  Solving for T, Initial residual = 0, Final residual = 0, No Iterations 0
diagonal:  Solving for T, Initial residual = 0, Final residual = 0, No Iterations 0
diagonal:  Solving for T, Initial residual = 0, Final residual = 0, No Iterations 0
 T goes from min(T) [0 0 0 0 0 0 0] -1.41771e+54 to max(T) [0 0 0 0 0 0 0] 1.61124e+54

ExecutionTime = 4.95 s  ClockTime = 96 s

Time = 2.4
Courant Number mean: 2.47628 max: 2.71104
diagonal:  Solving for T, Initial residual = 0, Final residual = 0, No Iterations 0
diagonal:  Solving for T, Initial residual = 0, Final residual = 0, No Iterations 0
diagonal:  Solving for T, Initial residual = 0, Final residual = 0, No Iterations 0
diagonal:  Solving for T, Initial residual = 0, Final residual = 0, No Iterations 0
 T goes from min(T) [0 0 0 0 0 0 0] -9.5215e+55 to max(T) [0 0 0 0 0 0 0] 8.16848e+55

ExecutionTime = 5.07 s  ClockTime = 98 s

Time = 2.5
Courant Number mean: 2.4 max: 2.4
diagonal:  Solving for T, Initial residual = 0, Final residual = 0, No Iterations 0
diagonal:  Solving for T, Initial residual = 0, Final residual = 0, No Iterations 0
diagonal:  Solving for T, Initial residual = 0, Final residual = 0, No Iterations 0
diagonal:  Solving for T, Initial residual = 0, Final residual = 0, No Iterations 0
 T goes from min(T) [0 0 0 0 0 0 0] -4.04621e+57 to max(T) [0 0 0 0 0 0 0] 3.81086e+57

ExecutionTime = 5.24 s  ClockTime = 102 s

Time = 2.6
Courant Number mean: 2.47628 max: 2.71104
diagonal:  Solving for T, Initial residual = 0, Final residual = 0, No Iterations 0
diagonal:  Solving for T, Initial residual = 0, Final residual = 0, No Iterations 0
diagonal:  Solving for T, Initial residual = 0, Final residual = 0, No Iterations 0
diagonal:  Solving for T, Initial residual = 0, Final residual = 0, No Iterations 0
 T goes from min(T) [0 0 0 0 0 0 0] -1.24501e+59 to max(T) [0 0 0 0 0 0 0] 1.31312e+59

ExecutionTime = 5.37 s  ClockTime = 104 s

Time = 2.7
Courant Number mean: 2.55235 max: 3.0209
diagonal:  Solving for T, Initial residual = 0, Final residual = 0, No Iterations 0
diagonal:  Solving for T, Initial residual = 0, Final residual = 0, No Iterations 0
diagonal:  Solving for T, Initial residual = 0, Final residual = 0, No Iterations 0
diagonal:  Solving for T, Initial residual = 0, Final residual = 0, No Iterations 0
 T goes from min(T) [0 0 0 0 0 0 0] -4.05361e+60 to max(T) [0 0 0 0 0 0 0] 3.72161e+60

ExecutionTime = 5.51 s  ClockTime = 108 s

Time = 2.8
Courant Number mean: 2.62778 max: 3.32829
diagonal:  Solving for T, Initial residual = 0, Final residual = 0, No Iterations 0
diagonal:  Solving for T, Initial residual = 0, Final residual = 0, No Iterations 0
diagonal:  Solving for T, Initial residual = 0, Final residual = 0, No Iterations 0
diagonal:  Solving for T, Initial residual = 0, Final residual = 0, No Iterations 0
 T goes from min(T) [0 0 0 0 0 0 0] -1.13553e+62 to max(T) [0 0 0 0 0 0 0] 1.27079e+62

ExecutionTime = 5.63 s  ClockTime = 110 s

Time = 2.9
Courant Number mean: 2.70211 max: 3.63193
diagonal:  Solving for T, Initial residual = 0, Final residual = 0, No Iterations 0
diagonal:  Solving for T, Initial residual = 0, Final residual = 0, No Iterations 0
diagonal:  Solving for T, Initial residual = 0, Final residual = 0, No Iterations 0
diagonal:  Solving for T, Initial residual = 0, Final residual = 0, No Iterations 0
 T goes from min(T) [0 0 0 0 0 0 0] -4.41993e+63 to max(T) [0 0 0 0 0 0 0] 4.32812e+63

ExecutionTime = 5.76 s  ClockTime = 113 s

Time = 3
Courant Number mean: 2.77572 max: 3.93053
diagonal:  Solving for T, Initial residual = 0, Final residual = 0, No Iterations 0
diagonal:  Solving for T, Initial residual = 0, Final residual = 0, No Iterations 0
diagonal:  Solving for T, Initial residual = 0, Final residual = 0, No Iterations 0
diagonal:  Solving for T, Initial residual = 0, Final residual = 0, No Iterations 0
 T goes from min(T) [0 0 0 0 0 0 0] -1.85389e+65 to max(T) [0 0 0 0 0 0 0] 1.78493e+65

ExecutionTime = 5.88 s  ClockTime = 116 s

Time = 3.1
Courant Number mean: 2.84719 max: 4.22357
diagonal:  Solving for T, Initial residual = 0, Final residual = 0, No Iterations 0
diagonal:  Solving for T, Initial residual = 0, Final residual = 0, No Iterations 0
diagonal:  Solving for T, Initial residual = 0, Final residual = 0, No Iterations 0
diagonal:  Solving for T, Initial residual = 0, Final residual = 0, No Iterations 0
 T goes from min(T) [0 0 0 0 0 0 0] -8.09935e+66 to max(T) [0 0 0 0 0 0 0] 7.96298e+66

ExecutionTime = 6.02 s  ClockTime = 119 s

Time = 3.2
Courant Number mean: 2.91757 max: 4.50931
diagonal:  Solving for T, Initial residual = 0, Final residual = 0, No Iterations 0
diagonal:  Solving for T, Initial residual = 0, Final residual = 0, No Iterations 0
diagonal:  Solving for T, Initial residual = 0, Final residual = 0, No Iterations 0
diagonal:  Solving for T, Initial residual = 0, Final residual = 0, No Iterations 0
 T goes from min(T) [0 0 0 0 0 0 0] -3.27545e+68 to max(T) [0 0 0 0 0 0 0] 3.79623e+68

ExecutionTime = 6.15 s  ClockTime = 123 s

Time = 3.3
Courant Number mean: 2.98561 max: 4.78661
diagonal:  Solving for T, Initial residual = 0, Final residual = 0, No Iterations 0
diagonal:  Solving for T, Initial residual = 0, Final residual = 0, No Iterations 0
diagonal:  Solving for T, Initial residual = 0, Final residual = 0, No Iterations 0
diagonal:  Solving for T, Initial residual = 0, Final residual = 0, No Iterations 0
 T goes from min(T) [0 0 0 0 0 0 0] -1.64838e+70 to max(T) [0 0 0 0 0 0 0] 1.57264e+70

ExecutionTime = 6.3 s  ClockTime = 127 s

Time = 3.4
Courant Number mean: 3.05092 max: 5.05431
diagonal:  Solving for T, Initial residual = 0, Final residual = 0, No Iterations 0
diagonal:  Solving for T, Initial residual = 0, Final residual = 0, No Iterations 0
diagonal:  Solving for T, Initial residual = 0, Final residual = 0, No Iterations 0
diagonal:  Solving for T, Initial residual = 0, Final residual = 0, No Iterations 0
 T goes from min(T) [0 0 0 0 0 0 0] -6.10633e+71 to max(T) [0 0 0 0 0 0 0] 5.79554e+71

ExecutionTime = 6.43 s  ClockTime = 130 s

Time = 3.5
Courant Number mean: 3.11466 max: 5.31124
diagonal:  Solving for T, Initial residual = 0, Final residual = 0, No Iterations 0
diagonal:  Solving for T, Initial residual = 0, Final residual = 0, No Iterations 0
diagonal:  Solving for T, Initial residual = 0, Final residual = 0, No Iterations 0
diagonal:  Solving for T, Initial residual = 0, Final residual = 0, No Iterations 0
 T goes from min(T) [0 0 0 0 0 0 0] -2.33822e+73 to max(T) [0 0 0 0 0 0 0] 1.92176e+73

ExecutionTime = 6.56 s  ClockTime = 133 s

Time = 3.6
Courant Number mean: 3.17444 max: 5.55759
diagonal:  Solving for T, Initial residual = 0, Final residual = 0, No Iterations 0
diagonal:  Solving for T, Initial residual = 0, Final residual = 0, No Iterations 0
diagonal:  Solving for T, Initial residual = 0, Final residual = 0, No Iterations 0
diagonal:  Solving for T, Initial residual = 0, Final residual = 0, No Iterations 0
 T goes from min(T) [0 0 0 0 0 0 0] -7.56648e+74 to max(T) [0 0 0 0 0 0 0] 7.86691e+74

ExecutionTime = 6.69 s  ClockTime = 135 s

Time = 3.7
Courant Number mean: 3.23613 max: 5.79124
diagonal:  Solving for T, Initial residual = 0, Final residual = 0, No Iterations 0
diagonal:  Solving for T, Initial residual = 0, Final residual = 0, No Iterations 0
diagonal:  Solving for T, Initial residual = 0, Final residual = 0, No Iterations 0
diagonal:  Solving for T, Initial residual = 0, Final residual = 0, No Iterations 0
 T goes from min(T) [0 0 0 0 0 0 0] -2.9497e+76 to max(T) [0 0 0 0 0 0 0] 2.82698e+76

ExecutionTime = 6.82 s  ClockTime = 138 s

Time = 3.8
Courant Number mean: 3.29838 max: 6.01131
diagonal:  Solving for T, Initial residual = 0, Final residual = 0, No Iterations 0
diagonal:  Solving for T, Initial residual = 0, Final residual = 0, No Iterations 0
diagonal:  Solving for T, Initial residual = 0, Final residual = 0, No Iterations 0
diagonal:  Solving for T, Initial residual = 0, Final residual = 0, No Iterations 0
 T goes from min(T) [0 0 0 0 0 0 0] -1.16141e+79 to max(T) [0 0 0 0 0 0 0] 1.09288e+79

ExecutionTime = 6.95 s  ClockTime = 140 s

Time = 3.9
Courant Number mean: 3.3594 max: 6.21687
diagonal:  Solving for T, Initial residual = 0, Final residual = 0, No Iterations 0
diagonal:  Solving for T, Initial residual = 0, Final residual = 0, No Iterations 0
diagonal:  Solving for T, Initial residual = 0, Final residual = 0, No Iterations 0
diagonal:  Solving for T, Initial residual = 0, Final residual = 0, No Iterations 0
 T goes from min(T) [0 0 0 0 0 0 0] -6.02297e+81 to max(T) [0 0 0 0 0 0 0] 5.46974e+81

ExecutionTime = 7.08 s  ClockTime = 143 s

Time = 4
Courant Number mean: 3.41991 max: 6.40698
diagonal:  Solving for T, Initial residual = 0, Final residual = 0, No Iterations 0
diagonal:  Solving for T, Initial residual = 0, Final residual = 0, No Iterations 0
diagonal:  Solving for T, Initial residual = 0, Final residual = 0, No Iterations 0
diagonal:  Solving for T, Initial residual = 0, Final residual = 0, No Iterations 0
 T goes from min(T) [0 0 0 0 0 0 0] -3.42688e+84 to max(T) [0 0 0 0 0 0 0] 3.81729e+84

ExecutionTime = 7.21 s  ClockTime = 145 s

Time = 4.1
Courant Number mean: 3.4759 max: 6.58252
diagonal:  Solving for T, Initial residual = 0, Final residual = 0, No Iterations 0
diagonal:  Solving for T, Initial residual = 0, Final residual = 0, No Iterations 0
diagonal:  Solving for T, Initial residual = 0, Final residual = 0, No Iterations 0
diagonal:  Solving for T, Initial residual = 0, Final residual = 0, No Iterations 0
 T goes from min(T) [0 0 0 0 0 0 0] -3.27475e+87 to max(T) [0 0 0 0 0 0 0] 3.63235e+87

ExecutionTime = 7.34 s  ClockTime = 147 s

Time = 4.2
Courant Number mean: 3.52941 max: 6.74122
diagonal:  Solving for T, Initial residual = 0, Final residual = 0, No Iterations 0
diagonal:  Solving for T, Initial residual = 0, Final residual = 0, No Iterations 0
diagonal:  Solving for T, Initial residual = 0, Final residual = 0, No Iterations 0
diagonal:  Solving for T, Initial residual = 0, Final residual = 0, No Iterations 0
 T goes from min(T) [0 0 0 0 0 0 0] -4.02018e+90 to max(T) [0 0 0 0 0 0 0] 4.10762e+90

ExecutionTime = 7.47 s  ClockTime = 150 s

Time = 4.3
Courant Number mean: 3.57753 max: 6.88251
diagonal:  Solving for T, Initial residual = 0, Final residual = 0, No Iterations 0
diagonal:  Solving for T, Initial residual = 0, Final residual = 0, No Iterations 0
diagonal:  Solving for T, Initial residual = 0, Final residual = 0, No Iterations 0
diagonal:  Solving for T, Initial residual = 0, Final residual = 0, No Iterations 0
 T goes from min(T) [0 0 0 0 0 0 0] -5.09552e+93 to max(T) [0 0 0 0 0 0 0] 4.89336e+93

ExecutionTime = 7.6 s  ClockTime = 152 s

Time = 4.4
Courant Number mean: 3.61981 max: 7.0058
diagonal:  Solving for T, Initial residual = 0, Final residual = 0, No Iterations 0
diagonal:  Solving for T, Initial residual = 0, Final residual = 0, No Iterations 0
diagonal:  Solving for T, Initial residual = 0, Final residual = 0, No Iterations 0
diagonal:  Solving for T, Initial residual = 0, Final residual = 0, No Iterations 0
 T goes from min(T) [0 0 0 0 0 0 0] -6.96446e+96 to max(T) [0 0 0 0 0 0 0] 7.08444e+96

ExecutionTime = 7.73 s  ClockTime = 155 s

Time = 4.5
Courant Number mean: 3.65801 max: 7.11048
diagonal:  Solving for T, Initial residual = 0, Final residual = 0, No Iterations 0
diagonal:  Solving for T, Initial residual = 0, Final residual = 0, No Iterations 0
diagonal:  Solving for T, Initial residual = 0, Final residual = 0, No Iterations 0
diagonal:  Solving for T, Initial residual = 0, Final residual = 0, No Iterations 0
 T goes from min(T) [0 0 0 0 0 0 0] -1.04918e+100 to max(T) [0 0 0 0 0 0 0] 9.74069e+99

ExecutionTime = 7.86 s  ClockTime = 157 s

Time = 4.6
Courant Number mean: 3.68794 max: 7.19804
diagonal:  Solving for T, Initial residual = 0, Final residual = 0, No Iterations 0
diagonal:  Solving for T, Initial residual = 0, Final residual = 0, No Iterations 0
diagonal:  Solving for T, Initial residual = 0, Final residual = 0, No Iterations 0
diagonal:  Solving for T, Initial residual = 0, Final residual = 0, No Iterations 0
 T goes from min(T) [0 0 0 0 0 0 0] -1.68426e+103 to max(T) [0 0 0 0 0 0 0] 1.59087e+103

ExecutionTime = 7.99 s  ClockTime = 160 s

Time = 4.7
Courant Number mean: 3.71308 max: 7.26625
diagonal:  Solving for T, Initial residual = 0, Final residual = 0, No Iterations 0
diagonal:  Solving for T, Initial residual = 0, Final residual = 0, No Iterations 0
diagonal:  Solving for T, Initial residual = 0, Final residual = 0, No Iterations 0
diagonal:  Solving for T, Initial residual = 0, Final residual = 0, No Iterations 0
 T goes from min(T) [0 0 0 0 0 0 0] -2.64293e+106 to max(T) [0 0 0 0 0 0 0] 2.82972e+106

ExecutionTime = 8.12 s  ClockTime = 162 s

Time = 4.8
Courant Number mean: 3.73065 max: 7.31493
diagonal:  Solving for T, Initial residual = 0, Final residual = 0, No Iterations 0
diagonal:  Solving for T, Initial residual = 0, Final residual = 0, No Iterations 0
diagonal:  Solving for T, Initial residual = 0, Final residual = 0, No Iterations 0
diagonal:  Solving for T, Initial residual = 0, Final residual = 0, No Iterations 0
 T goes from min(T) [0 0 0 0 0 0 0] -3.98702e+109 to max(T) [0 0 0 0 0 0 0] 4.94871e+109

ExecutionTime = 8.25 s  ClockTime = 165 s

Time = 4.9
Courant Number mean: 3.74043 max: 7.34389
diagonal:  Solving for T, Initial residual = 0, Final residual = 0, No Iterations 0
diagonal:  Solving for T, Initial residual = 0, Final residual = 0, No Iterations 0
diagonal:  Solving for T, Initial residual = 0, Final residual = 0, No Iterations 0
diagonal:  Solving for T, Initial residual = 0, Final residual = 0, No Iterations 0
 T goes from min(T) [0 0 0 0 0 0 0] -6.53955e+112 to max(T) [0 0 0 0 0 0 0] 8.46094e+112

ExecutionTime = 8.38 s  ClockTime = 167 s

Time = 5
Courant Number mean: 3.74505 max: 7.3529
diagonal:  Solving for T, Initial residual = 0, Final residual = 0, No Iterations 0
diagonal:  Solving for T, Initial residual = 0, Final residual = 0, No Iterations 0
diagonal:  Solving for T, Initial residual = 0, Final residual = 0, No Iterations 0
diagonal:  Solving for T, Initial residual = 0, Final residual = 0, No Iterations 0
 T goes from min(T) [0 0 0 0 0 0 0] -1.14866e+116 to max(T) [0 0 0 0 0 0 0] 1.50799e+116

ExecutionTime = 8.51 s  ClockTime = 170 s

Time = 5.1
Courant Number mean: 3.74043 max: 7.34389
diagonal:  Solving for T, Initial residual = 0, Final residual = 0, No Iterations 0
diagonal:  Solving for T, Initial residual = 0, Final residual = 0, No Iterations 0
diagonal:  Solving for T, Initial residual = 0, Final residual = 0, No Iterations 0
diagonal:  Solving for T, Initial residual = 0, Final residual = 0, No Iterations 0
 T goes from min(T) [0 0 0 0 0 0 0] -2.22181e+119 to max(T) [0 0 0 0 0 0 0] 2.57213e+119

ExecutionTime = 8.65 s  ClockTime = 172 s

Time = 5.2
Courant Number mean: 3.73065 max: 7.31493
diagonal:  Solving for T, Initial residual = 0, Final residual = 0, No Iterations 0
diagonal:  Solving for T, Initial residual = 0, Final residual = 0, No Iterations 0
diagonal:  Solving for T, Initial residual = 0, Final residual = 0, No Iterations 0
diagonal:  Solving for T, Initial residual = 0, Final residual = 0, No Iterations 0
 T goes from min(T) [0 0 0 0 0 0 0] -4.22505e+122 to max(T) [0 0 0 0 0 0 0] 3.94628e+122

ExecutionTime = 8.78 s  ClockTime = 175 s

Time = 5.3
Courant Number mean: 3.71308 max: 7.26625
diagonal:  Solving for T, Initial residual = 0, Final residual = 0, No Iterations 0
diagonal:  Solving for T, Initial residual = 0, Final residual = 0, No Iterations 0
diagonal:  Solving for T, Initial residual = 0, Final residual = 0, No Iterations 0
diagonal:  Solving for T, Initial residual = 0, Final residual = 0, No Iterations 0
 T goes from min(T) [0 0 0 0 0 0 0] -7.26188e+125 to max(T) [0 0 0 0 0 0 0] 6.0905e+125

ExecutionTime = 8.91 s  ClockTime = 177 s

Time = 5.4
Courant Number mean: 3.68794 max: 7.19804
diagonal:  Solving for T, Initial residual = 0, Final residual = 0, No Iterations 0
diagonal:  Solving for T, Initial residual = 0, Final residual = 0, No Iterations 0
diagonal:  Solving for T, Initial residual = 0, Final residual = 0, No Iterations 0
diagonal:  Solving for T, Initial residual = 0, Final residual = 0, No Iterations 0
 T goes from min(T) [0 0 0 0 0 0 0] -1.16115e+129 to max(T) [0 0 0 0 0 0 0] 9.08181e+128

ExecutionTime = 9.07 s  ClockTime = 180 s

Time = 5.5
Courant Number mean: 3.65801 max: 7.11048
diagonal:  Solving for T, Initial residual = 0, Final residual = 0, No Iterations 0
diagonal:  Solving for T, Initial residual = 0, Final residual = 0, No Iterations 0
diagonal:  Solving for T, Initial residual = 0, Final residual = 0, No Iterations 0
diagonal:  Solving for T, Initial residual = 0, Final residual = 0, No Iterations 0
 T goes from min(T) [0 0 0 0 0 0 0] -1.87384e+132 to max(T) [0 0 0 0 0 0 0] 1.42393e+132

ExecutionTime = 9.21 s  ClockTime = 183 s

Time = 5.6
Courant Number mean: 3.61981 max: 7.0058
diagonal:  Solving for T, Initial residual = 0, Final residual = 0, No Iterations 0
diagonal:  Solving for T, Initial residual = 0, Final residual = 0, No Iterations 0
diagonal:  Solving for T, Initial residual = 0, Final residual = 0, No Iterations 0
diagonal:  Solving for T, Initial residual = 0, Final residual = 0, No Iterations 0
 T goes from min(T) [0 0 0 0 0 0 0] -2.58045e+135 to max(T) [0 0 0 0 0 0 0] 2.37197e+135

ExecutionTime = 9.35 s  ClockTime = 186 s

Time = 5.7
Courant Number mean: 3.57753 max: 6.88251
diagonal:  Solving for T, Initial residual = 0, Final residual = 0, No Iterations 0
diagonal:  Solving for T, Initial residual = 0, Final residual = 0, No Iterations 0
diagonal:  Solving for T, Initial residual = 0, Final residual = 0, No Iterations 0
diagonal:  Solving for T, Initial residual = 0, Final residual = 0, No Iterations 0
 T goes from min(T) [0 0 0 0 0 0 0] -3.18609e+138 to max(T) [0 0 0 0 0 0 0] 3.52074e+138

ExecutionTime = 9.48 s  ClockTime = 188 s

Time = 5.8
Courant Number mean: 3.52941 max: 6.74122
diagonal:  Solving for T, Initial residual = 0, Final residual = 0, No Iterations 0
diagonal:  Solving for T, Initial residual = 0, Final residual = 0, No Iterations 0
diagonal:  Solving for T, Initial residual = 0, Final residual = 0, No Iterations 0
diagonal:  Solving for T, Initial residual = 0, Final residual = 0, No Iterations 0
 T goes from min(T) [0 0 0 0 0 0 0] -3.7561e+141 to max(T) [0 0 0 0 0 0 0] 4.43431e+141

ExecutionTime = 9.6 s  ClockTime = 190 s

Time = 5.9
Courant Number mean: 3.4759 max: 6.58252
diagonal:  Solving for T, Initial residual = 0, Final residual = 0, No Iterations 0
diagonal:  Solving for T, Initial residual = 0, Final residual = 0, No Iterations 0
diagonal:  Solving for T, Initial residual = 0, Final residual = 0, No Iterations 0
diagonal:  Solving for T, Initial residual = 0, Final residual = 0, No Iterations 0
 T goes from min(T) [0 0 0 0 0 0 0] -4.27343e+144 to max(T) [0 0 0 0 0 0 0] 5.4028e+144

ExecutionTime = 9.72 s  ClockTime = 193 s

Time = 6
Courant Number mean: 3.41991 max: 6.40698
diagonal:  Solving for T, Initial residual = 0, Final residual = 0, No Iterations 0
diagonal:  Solving for T, Initial residual = 0, Final residual = 0, No Iterations 0
diagonal:  Solving for T, Initial residual = 0, Final residual = 0, No Iterations 0
diagonal:  Solving for T, Initial residual = 0, Final residual = 0, No Iterations 0
 T goes from min(T) [0 0 0 0 0 0 0] -4.47214e+147 to max(T) [0 0 0 0 0 0 0] 5.70424e+147

ExecutionTime = 9.85 s  ClockTime = 195 s

End

