/*---------------------------------------------------------------------------*\
| =========                 |                                                 |
| \\      /  F ield         | OpenFOAM: The Open Source CFD Toolbox           |
|  \\    /   O peration     | Version:  dev                                   |
|   \\  /    A nd           | Web:      www.OpenFOAM.org                      |
|    \\/     M anipulation  |                                                 |
\*---------------------------------------------------------------------------*/
Build  : dev-90f39e0d894d
Exec   : scalarDeformationWithGhosts implicit -case orthogonal/120x60/c5_implicit
Date   : May 23 2017
Time   : 20:31:34
Host   : "sws02hw.private.rdg.ac.uk"
PID    : 22945
Case   : orthogonal/120x60/c5_implicit
nProcs : 1
sigFpe : Enabling floating point exception trapping (FOAM_SIGFPE).
fileModificationChecking : Monitoring run-time modified files using timeStampMaster (fileModificationSkew 10)
allowSystemOperations : Allowing user-supplied system call operations

// * * * * * * * * * * * * * * * * * * * * * * * * * * * * * * * * * * * * * //
Create time

Create mesh for time = 0

Reading field T

Reading fields phi (compulsory), U and Uf (optional)

Calculating owner stencils
Calculating neighbour stencils

Calculating scalar transport

Courant Number mean: 1.87253 max: 3.67645
Time = 0.05
Courant Number mean: 1.87196 max: 3.67578
DILUPBiCG:  Solving for T, Initial residual = 0.0670584, Final residual = 3.2203e-09, No Iterations 7
DILUPBiCG:  Solving for T, Initial residual = 0.00291243, Final residual = 2.01821e-09, No Iterations 6
DILUPBiCG:  Solving for T, Initial residual = 9.45963e-05, Final residual = 5.12846e-09, No Iterations 4
DILUPBiCG:  Solving for T, Initial residual = 6.64693e-06, Final residual = 7.74687e-09, No Iterations 3
 T goes from min(T) [0 0 0 0 0 0 0] -7.66593e-10 to max(T) [0 0 0 0 0 0 0] 0.954865

ExecutionTime = 2.29 s  ClockTime = 47 s

Time = 0.1
Courant Number mean: 1.87021 max: 3.67195
DILUPBiCG:  Solving for T, Initial residual = 0.0671568, Final residual = 1.98995e-09, No Iterations 7
DILUPBiCG:  Solving for T, Initial residual = 0.00295376, Final residual = 2.08164e-09, No Iterations 6
DILUPBiCG:  Solving for T, Initial residual = 9.96767e-05, Final residual = 4.43932e-09, No Iterations 4
DILUPBiCG:  Solving for T, Initial residual = 7.3921e-06, Final residual = 4.95364e-09, No Iterations 3
 T goes from min(T) [0 0 0 0 0 0 0] -2.7417e-06 to max(T) [0 0 0 0 0 0 0] 0.958312

ExecutionTime = 2.43 s  ClockTime = 49 s

Time = 0.15
Courant Number mean: 1.86801 max: 3.66584
DILUPBiCG:  Solving for T, Initial residual = 0.0673427, Final residual = 1.53057e-09, No Iterations 7
DILUPBiCG:  Solving for T, Initial residual = 0.00302772, Final residual = 9.49355e-09, No Iterations 5
DILUPBiCG:  Solving for T, Initial residual = 0.000107568, Final residual = 4.10618e-09, No Iterations 4
DILUPBiCG:  Solving for T, Initial residual = 8.5311e-06, Final residual = 3.79714e-09, No Iterations 3
 T goes from min(T) [0 0 0 0 0 0 0] -5.32078e-05 to max(T) [0 0 0 0 0 0 0] 0.961782

ExecutionTime = 2.56 s  ClockTime = 52 s

Time = 0.2
Courant Number mean: 1.86533 max: 3.65747
DILUPBiCG:  Solving for T, Initial residual = 0.0674298, Final residual = 1.50505e-09, No Iterations 7
DILUPBiCG:  Solving for T, Initial residual = 0.00311926, Final residual = 8.60905e-09, No Iterations 5
DILUPBiCG:  Solving for T, Initial residual = 0.000118041, Final residual = 5.33648e-09, No Iterations 4
DILUPBiCG:  Solving for T, Initial residual = 9.97865e-06, Final residual = 6.07712e-09, No Iterations 3
 T goes from min(T) [0 0 0 0 0 0 0] -0.000252369 to max(T) [0 0 0 0 0 0 0] 0.963887

ExecutionTime = 2.7 s  ClockTime = 55 s

Time = 0.25
Courant Number mean: 1.8615 max: 3.64596
DILUPBiCG:  Solving for T, Initial residual = 0.0674295, Final residual = 1.76174e-09, No Iterations 7
DILUPBiCG:  Solving for T, Initial residual = 0.00322351, Final residual = 6.0885e-09, No Iterations 5
DILUPBiCG:  Solving for T, Initial residual = 0.000130726, Final residual = 4.49189e-10, No Iterations 5
DILUPBiCG:  Solving for T, Initial residual = 1.17277e-05, Final residual = 7.1658e-09, No Iterations 3
 T goes from min(T) [0 0 0 0 0 0 0] -0.000687204 to max(T) [0 0 0 0 0 0 0] 0.967422

ExecutionTime = 2.85 s  ClockTime = 58 s

Time = 0.3
Courant Number mean: 1.85654 max: 3.63312
DILUPBiCG:  Solving for T, Initial residual = 0.0673391, Final residual = 2.43526e-09, No Iterations 7
DILUPBiCG:  Solving for T, Initial residual = 0.00333744, Final residual = 7.06234e-09, No Iterations 5
DILUPBiCG:  Solving for T, Initial residual = 0.000146266, Final residual = 4.73086e-10, No Iterations 5
DILUPBiCG:  Solving for T, Initial residual = 1.38412e-05, Final residual = 7.57259e-09, No Iterations 3
 T goes from min(T) [0 0 0 0 0 0 0] -0.00142681 to max(T) [0 0 0 0 0 0 0] 0.965314

ExecutionTime = 2.98 s  ClockTime = 61 s

Time = 0.35
Courant Number mean: 1.85048 max: 3.61718
DILUPBiCG:  Solving for T, Initial residual = 0.0672644, Final residual = 3.32545e-09, No Iterations 7
DILUPBiCG:  Solving for T, Initial residual = 0.00345963, Final residual = 8.86147e-09, No Iterations 5
DILUPBiCG:  Solving for T, Initial residual = 0.000164831, Final residual = 5.16572e-10, No Iterations 5
DILUPBiCG:  Solving for T, Initial residual = 1.63496e-05, Final residual = 7.94821e-09, No Iterations 3
 T goes from min(T) [0 0 0 0 0 0 0] -0.00250626 to max(T) [0 0 0 0 0 0 0] 0.970356

ExecutionTime = 3.12 s  ClockTime = 64 s

Time = 0.4
Courant Number mean: 1.84397 max: 3.59902
DILUPBiCG:  Solving for T, Initial residual = 0.067285, Final residual = 3.85666e-09, No Iterations 7
DILUPBiCG:  Solving for T, Initial residual = 0.00361633, Final residual = 8.78906e-09, No Iterations 5
DILUPBiCG:  Solving for T, Initial residual = 0.000186517, Final residual = 6.29995e-10, No Iterations 5
DILUPBiCG:  Solving for T, Initial residual = 1.94067e-05, Final residual = 8.92204e-09, No Iterations 3
 T goes from min(T) [0 0 0 0 0 0 0] -0.00399881 to max(T) [0 0 0 0 0 0 0] 0.9728

ExecutionTime = 3.26 s  ClockTime = 67 s

Time = 0.45
Courant Number mean: 1.83702 max: 3.57864
DILUPBiCG:  Solving for T, Initial residual = 0.0674425, Final residual = 4.40832e-09, No Iterations 7
DILUPBiCG:  Solving for T, Initial residual = 0.00380211, Final residual = 9.98387e-09, No Iterations 5
DILUPBiCG:  Solving for T, Initial residual = 0.000212532, Final residual = 8.89923e-10, No Iterations 5
DILUPBiCG:  Solving for T, Initial residual = 2.3073e-05, Final residual = 1.27916e-09, No Iterations 4
 T goes from min(T) [0 0 0 0 0 0 0] -0.00558553 to max(T) [0 0 0 0 0 0 0] 0.973944

ExecutionTime = 3.39 s  ClockTime = 70 s

Time = 0.5
Courant Number mean: 1.82901 max: 3.55524
DILUPBiCG:  Solving for T, Initial residual = 0.0679432, Final residual = 6.28038e-09, No Iterations 7
DILUPBiCG:  Solving for T, Initial residual = 0.00402064, Final residual = 1.48255e-09, No Iterations 6
DILUPBiCG:  Solving for T, Initial residual = 0.000242766, Final residual = 1.32728e-09, No Iterations 5
DILUPBiCG:  Solving for T, Initial residual = 2.76974e-05, Final residual = 1.88576e-09, No Iterations 4
 T goes from min(T) [0 0 0 0 0 0 0] -0.00755345 to max(T) [0 0 0 0 0 0 0] 0.973304

ExecutionTime = 3.52 s  ClockTime = 72 s

Time = 0.55
Courant Number mean: 1.81996 max: 3.53056
DILUPBiCG:  Solving for T, Initial residual = 0.0687521, Final residual = 9.26723e-09, No Iterations 7
DILUPBiCG:  Solving for T, Initial residual = 0.004259, Final residual = 2.31059e-09, No Iterations 6
DILUPBiCG:  Solving for T, Initial residual = 0.000279125, Final residual = 2.03501e-09, No Iterations 5
DILUPBiCG:  Solving for T, Initial residual = 3.3505e-05, Final residual = 2.78719e-09, No Iterations 4
 T goes from min(T) [0 0 0 0 0 0 0] -0.00978703 to max(T) [0 0 0 0 0 0 0] 0.973882

ExecutionTime = 3.66 s  ClockTime = 75 s

Time = 0.6
Courant Number mean: 1.8099 max: 3.5029
DILUPBiCG:  Solving for T, Initial residual = 0.0697987, Final residual = 5.87563e-09, No Iterations 8
DILUPBiCG:  Solving for T, Initial residual = 0.00452382, Final residual = 3.90662e-09, No Iterations 6
DILUPBiCG:  Solving for T, Initial residual = 0.000321886, Final residual = 3.23625e-09, No Iterations 5
DILUPBiCG:  Solving for T, Initial residual = 4.06398e-05, Final residual = 4.17098e-09, No Iterations 4
 T goes from min(T) [0 0 0 0 0 0 0] -0.0119721 to max(T) [0 0 0 0 0 0 0] 0.974489

ExecutionTime = 3.8 s  ClockTime = 78 s

Time = 0.65
Courant Number mean: 1.79949 max: 3.47313
DILUPBiCG:  Solving for T, Initial residual = 0.0709261, Final residual = 4.32167e-09, No Iterations 8
DILUPBiCG:  Solving for T, Initial residual = 0.00483005, Final residual = 5.64897e-09, No Iterations 6
DILUPBiCG:  Solving for T, Initial residual = 0.000370451, Final residual = 4.99631e-09, No Iterations 5
DILUPBiCG:  Solving for T, Initial residual = 4.94584e-05, Final residual = 9.21836e-09, No Iterations 4
 T goes from min(T) [0 0 0 0 0 0 0] -0.0142188 to max(T) [0 0 0 0 0 0 0] 0.970895

ExecutionTime = 3.93 s  ClockTime = 81 s

Time = 0.7
Courant Number mean: 1.78877 max: 3.44125
DILUPBiCG:  Solving for T, Initial residual = 0.0722238, Final residual = 3.88997e-09, No Iterations 8
DILUPBiCG:  Solving for T, Initial residual = 0.00518832, Final residual = 7.96317e-09, No Iterations 6
DILUPBiCG:  Solving for T, Initial residual = 0.000426667, Final residual = 6.98665e-09, No Iterations 5
DILUPBiCG:  Solving for T, Initial residual = 5.97201e-05, Final residual = 8.52971e-09, No Iterations 4
 T goes from min(T) [0 0 0 0 0 0 0] -0.0167671 to max(T) [0 0 0 0 0 0 0] 0.962939

ExecutionTime = 4.06 s  ClockTime = 84 s

Time = 0.75
Courant Number mean: 1.77712 max: 3.40653
DILUPBiCG:  Solving for T, Initial residual = 0.0737643, Final residual = 3.4808e-09, No Iterations 8
DILUPBiCG:  Solving for T, Initial residual = 0.00557654, Final residual = 2.09879e-09, No Iterations 7
DILUPBiCG:  Solving for T, Initial residual = 0.000490053, Final residual = 9.35014e-09, No Iterations 5
DILUPBiCG:  Solving for T, Initial residual = 7.225e-05, Final residual = 1.38517e-09, No Iterations 5
 T goes from min(T) [0 0 0 0 0 0 0] -0.0192602 to max(T) [0 0 0 0 0 0 0] 0.9685

ExecutionTime = 4.2 s  ClockTime = 87 s

Time = 0.8
Courant Number mean: 1.7647 max: 3.37061
DILUPBiCG:  Solving for T, Initial residual = 0.075288, Final residual = 4.03835e-09, No Iterations 8
DILUPBiCG:  Solving for T, Initial residual = 0.00600734, Final residual = 5.28845e-10, No Iterations 8
DILUPBiCG:  Solving for T, Initial residual = 0.000563863, Final residual = 1.5221e-09, No Iterations 6
DILUPBiCG:  Solving for T, Initial residual = 8.66912e-05, Final residual = 5.45142e-09, No Iterations 5
 T goes from min(T) [0 0 0 0 0 0 0] -0.0217014 to max(T) [0 0 0 0 0 0 0] 0.948374

ExecutionTime = 4.34 s  ClockTime = 90 s

Time = 0.85
Courant Number mean: 1.75142 max: 3.33191
DILUPBiCG:  Solving for T, Initial residual = 0.0772329, Final residual = 5.46386e-09, No Iterations 8
DILUPBiCG:  Solving for T, Initial residual = 0.00645324, Final residual = 2.56811e-09, No Iterations 7
DILUPBiCG:  Solving for T, Initial residual = 0.000645528, Final residual = 1.87064e-09, No Iterations 6
DILUPBiCG:  Solving for T, Initial residual = 0.00010342, Final residual = 2.82314e-09, No Iterations 5
 T goes from min(T) [0 0 0 0 0 0 0] -0.0238352 to max(T) [0 0 0 0 0 0 0] 0.962235

ExecutionTime = 4.48 s  ClockTime = 93 s

Time = 0.9
Courant Number mean: 1.73795 max: 3.29126
DILUPBiCG:  Solving for T, Initial residual = 0.0791695, Final residual = 4.01524e-10, No Iterations 9
DILUPBiCG:  Solving for T, Initial residual = 0.00694196, Final residual = 2.49123e-10, No Iterations 8
DILUPBiCG:  Solving for T, Initial residual = 0.00073713, Final residual = 2.15714e-09, No Iterations 6
DILUPBiCG:  Solving for T, Initial residual = 0.000123044, Final residual = 3.5268e-09, No Iterations 5
 T goes from min(T) [0 0 0 0 0 0 0] -0.0252112 to max(T) [0 0 0 0 0 0 0] 0.938936

ExecutionTime = 4.62 s  ClockTime = 96 s

Time = 0.95
Courant Number mean: 1.72428 max: 3.24868
DILUPBiCG:  Solving for T, Initial residual = 0.081544, Final residual = 2.06456e-09, No Iterations 8
DILUPBiCG:  Solving for T, Initial residual = 0.00744255, Final residual = 3.19775e-09, No Iterations 7
DILUPBiCG:  Solving for T, Initial residual = 0.000836445, Final residual = 2.89762e-09, No Iterations 6
DILUPBiCG:  Solving for T, Initial residual = 0.000145346, Final residual = 3.66926e-09, No Iterations 5
 T goes from min(T) [0 0 0 0 0 0 0] -0.0284861 to max(T) [0 0 0 0 0 0 0] 0.947495

ExecutionTime = 4.77 s  ClockTime = 99 s

Time = 1
Courant Number mean: 1.70996 max: 3.20349
DILUPBiCG:  Solving for T, Initial residual = 0.0839894, Final residual = 3.8252e-10, No Iterations 9
DILUPBiCG:  Solving for T, Initial residual = 0.00797094, Final residual = 5.20382e-09, No Iterations 7
DILUPBiCG:  Solving for T, Initial residual = 0.00094748, Final residual = 2.45144e-09, No Iterations 6
DILUPBiCG:  Solving for T, Initial residual = 0.000169689, Final residual = 7.56721e-09, No Iterations 5
 T goes from min(T) [0 0 0 0 0 0 0] -0.030282 to max(T) [0 0 0 0 0 0 0] 0.954123

ExecutionTime = 4.92 s  ClockTime = 102 s

Time = 1.05
Courant Number mean: 1.69512 max: 3.15721
DILUPBiCG:  Solving for T, Initial residual = 0.0868143, Final residual = 2.42217e-09, No Iterations 8
DILUPBiCG:  Solving for T, Initial residual = 0.00852456, Final residual = 1.90659e-09, No Iterations 7
DILUPBiCG:  Solving for T, Initial residual = 0.00106753, Final residual = 3.93911e-09, No Iterations 6
DILUPBiCG:  Solving for T, Initial residual = 0.000196967, Final residual = 5.54776e-09, No Iterations 5
 T goes from min(T) [0 0 0 0 0 0 0] -0.0341674 to max(T) [0 0 0 0 0 0 0] 0.952352

ExecutionTime = 5.09 s  ClockTime = 105 s

Time = 1.1
Courant Number mean: 1.6797 max: 3.10843
DILUPBiCG:  Solving for T, Initial residual = 0.0898019, Final residual = 1.25855e-09, No Iterations 8
DILUPBiCG:  Solving for T, Initial residual = 0.00912736, Final residual = 4.15729e-09, No Iterations 7
DILUPBiCG:  Solving for T, Initial residual = 0.00119358, Final residual = 5.39329e-09, No Iterations 6
DILUPBiCG:  Solving for T, Initial residual = 0.000225934, Final residual = 2.62973e-09, No Iterations 5
 T goes from min(T) [0 0 0 0 0 0 0] -0.0459015 to max(T) [0 0 0 0 0 0 0] 0.950409

ExecutionTime = 5.24 s  ClockTime = 108 s

Time = 1.15
Courant Number mean: 1.66436 max: 3.0579
DILUPBiCG:  Solving for T, Initial residual = 0.0930028, Final residual = 7.65807e-09, No Iterations 7
DILUPBiCG:  Solving for T, Initial residual = 0.00970347, Final residual = 8.28365e-09, No Iterations 6
DILUPBiCG:  Solving for T, Initial residual = 0.00132863, Final residual = 1.32134e-09, No Iterations 6
DILUPBiCG:  Solving for T, Initial residual = 0.000257995, Final residual = 2.28092e-09, No Iterations 5
 T goes from min(T) [0 0 0 0 0 0 0] -0.0598873 to max(T) [0 0 0 0 0 0 0] 0.95247

ExecutionTime = 5.38 s  ClockTime = 111 s

Time = 1.2
Courant Number mean: 1.64919 max: 3.00565
DILUPBiCG:  Solving for T, Initial residual = 0.0963534, Final residual = 5.80265e-09, No Iterations 7
DILUPBiCG:  Solving for T, Initial residual = 0.0103382, Final residual = 7.71597e-09, No Iterations 6
DILUPBiCG:  Solving for T, Initial residual = 0.00147395, Final residual = 5.43146e-09, No Iterations 6
DILUPBiCG:  Solving for T, Initial residual = 0.000292358, Final residual = 2.94715e-09, No Iterations 5
 T goes from min(T) [0 0 0 0 0 0 0] -0.0745779 to max(T) [0 0 0 0 0 0 0] 0.950552

ExecutionTime = 5.52 s  ClockTime = 114 s

Time = 1.25
Courant Number mean: 1.6337 max: 2.95111
DILUPBiCG:  Solving for T, Initial residual = 0.099661, Final residual = 4.88938e-09, No Iterations 7
DILUPBiCG:  Solving for T, Initial residual = 0.0109552, Final residual = 5.82466e-09, No Iterations 6
DILUPBiCG:  Solving for T, Initial residual = 0.00161827, Final residual = 1.55155e-09, No Iterations 6
DILUPBiCG:  Solving for T, Initial residual = 0.000326828, Final residual = 2.42105e-09, No Iterations 5
 T goes from min(T) [0 0 0 0 0 0 0] -0.0918749 to max(T) [0 0 0 0 0 0 0] 0.947605

ExecutionTime = 5.65 s  ClockTime = 116 s

Time = 1.3
Courant Number mean: 1.61807 max: 2.89562
DILUPBiCG:  Solving for T, Initial residual = 0.102927, Final residual = 4.21065e-09, No Iterations 7
DILUPBiCG:  Solving for T, Initial residual = 0.0116031, Final residual = 5.49273e-09, No Iterations 6
DILUPBiCG:  Solving for T, Initial residual = 0.00176489, Final residual = 9.12882e-09, No Iterations 5
DILUPBiCG:  Solving for T, Initial residual = 0.000362503, Final residual = 2.73977e-09, No Iterations 5
 T goes from min(T) [0 0 0 0 0 0 0] -0.107842 to max(T) [0 0 0 0 0 0 0] 0.945553

ExecutionTime = 5.78 s  ClockTime = 119 s

Time = 1.35
Courant Number mean: 1.60238 max: 2.83796
DILUPBiCG:  Solving for T, Initial residual = 0.106354, Final residual = 3.82651e-09, No Iterations 7
DILUPBiCG:  Solving for T, Initial residual = 0.0122186, Final residual = 5.11186e-09, No Iterations 6
DILUPBiCG:  Solving for T, Initial residual = 0.00191643, Final residual = 7.73243e-09, No Iterations 5
DILUPBiCG:  Solving for T, Initial residual = 0.00039926, Final residual = 2.61282e-09, No Iterations 5
 T goes from min(T) [0 0 0 0 0 0 0] -0.123656 to max(T) [0 0 0 0 0 0 0] 0.945012

ExecutionTime = 5.91 s  ClockTime = 121 s

Time = 1.4
Courant Number mean: 1.58722 max: 2.77879
DILUPBiCG:  Solving for T, Initial residual = 0.109572, Final residual = 3.83205e-09, No Iterations 7
DILUPBiCG:  Solving for T, Initial residual = 0.0128207, Final residual = 4.75467e-09, No Iterations 6
DILUPBiCG:  Solving for T, Initial residual = 0.00205997, Final residual = 7.46954e-09, No Iterations 5
DILUPBiCG:  Solving for T, Initial residual = 0.000433949, Final residual = 2.27942e-09, No Iterations 5
 T goes from min(T) [0 0 0 0 0 0 0] -0.136726 to max(T) [0 0 0 0 0 0 0] 0.945066

ExecutionTime = 6.05 s  ClockTime = 123 s

Time = 1.45
Courant Number mean: 1.57252 max: 2.71817
DILUPBiCG:  Solving for T, Initial residual = 0.11263, Final residual = 3.97281e-09, No Iterations 7
DILUPBiCG:  Solving for T, Initial residual = 0.0134214, Final residual = 4.66985e-09, No Iterations 6
DILUPBiCG:  Solving for T, Initial residual = 0.00219591, Final residual = 7.37387e-09, No Iterations 5
DILUPBiCG:  Solving for T, Initial residual = 0.000469633, Final residual = 2.03695e-09, No Iterations 5
 T goes from min(T) [0 0 0 0 0 0 0] -0.151863 to max(T) [0 0 0 0 0 0 0] 0.943164

ExecutionTime = 6.21 s  ClockTime = 127 s

Time = 1.5
Courant Number mean: 1.55733 max: 2.65562
DILUPBiCG:  Solving for T, Initial residual = 0.115626, Final residual = 3.54708e-09, No Iterations 7
DILUPBiCG:  Solving for T, Initial residual = 0.0139733, Final residual = 5.41644e-09, No Iterations 6
DILUPBiCG:  Solving for T, Initial residual = 0.00233142, Final residual = 6.80618e-09, No Iterations 5
DILUPBiCG:  Solving for T, Initial residual = 0.000500869, Final residual = 1.74321e-09, No Iterations 5
 T goes from min(T) [0 0 0 0 0 0 0] -0.165994 to max(T) [0 0 0 0 0 0 0] 0.93691

ExecutionTime = 6.35 s  ClockTime = 131 s

Time = 1.55
Courant Number mean: 1.54163 max: 2.59228
DILUPBiCG:  Solving for T, Initial residual = 0.118614, Final residual = 2.4009e-09, No Iterations 7
DILUPBiCG:  Solving for T, Initial residual = 0.0144849, Final residual = 2.39223e-10, No Iterations 7
DILUPBiCG:  Solving for T, Initial residual = 0.00245302, Final residual = 6.26094e-09, No Iterations 5
DILUPBiCG:  Solving for T, Initial residual = 0.000532646, Final residual = 1.4861e-09, No Iterations 5
 T goes from min(T) [0 0 0 0 0 0 0] -0.178217 to max(T) [0 0 0 0 0 0 0] 0.932319

ExecutionTime = 6.51 s  ClockTime = 137 s

Time = 1.6
Courant Number mean: 1.52546 max: 2.52715
DILUPBiCG:  Solving for T, Initial residual = 0.121414, Final residual = 1.66452e-09, No Iterations 7
DILUPBiCG:  Solving for T, Initial residual = 0.0149448, Final residual = 8.49899e-09, No Iterations 6
DILUPBiCG:  Solving for T, Initial residual = 0.00257048, Final residual = 5.48059e-09, No Iterations 5
DILUPBiCG:  Solving for T, Initial residual = 0.000558792, Final residual = 1.27247e-09, No Iterations 5
 T goes from min(T) [0 0 0 0 0 0 0] -0.19113 to max(T) [0 0 0 0 0 0 0] 0.93183

ExecutionTime = 6.64 s  ClockTime = 140 s

Time = 1.65
Courant Number mean: 1.50919 max: 2.46081
DILUPBiCG:  Solving for T, Initial residual = 0.124152, Final residual = 1.27017e-09, No Iterations 7
DILUPBiCG:  Solving for T, Initial residual = 0.0154009, Final residual = 3.2329e-09, No Iterations 6
DILUPBiCG:  Solving for T, Initial residual = 0.00266704, Final residual = 4.80332e-09, No Iterations 5
DILUPBiCG:  Solving for T, Initial residual = 0.000583034, Final residual = 1.03257e-09, No Iterations 5
 T goes from min(T) [0 0 0 0 0 0 0] -0.198793 to max(T) [0 0 0 0 0 0 0] 0.926706

ExecutionTime = 6.78 s  ClockTime = 142 s

Time = 1.7
Courant Number mean: 1.49281 max: 2.3933
DILUPBiCG:  Solving for T, Initial residual = 0.126893, Final residual = 9.66506e-10, No Iterations 7
DILUPBiCG:  Solving for T, Initial residual = 0.015731, Final residual = 1.99889e-09, No Iterations 6
DILUPBiCG:  Solving for T, Initial residual = 0.0027636, Final residual = 4.09847e-09, No Iterations 5
DILUPBiCG:  Solving for T, Initial residual = 0.000603982, Final residual = 8.27977e-10, No Iterations 5
 T goes from min(T) [0 0 0 0 0 0 0] -0.211666 to max(T) [0 0 0 0 0 0 0] 0.922697

ExecutionTime = 6.92 s  ClockTime = 145 s

Time = 1.75
Courant Number mean: 1.47599 max: 2.32428
DILUPBiCG:  Solving for T, Initial residual = 0.129012, Final residual = 7.22559e-10, No Iterations 7
DILUPBiCG:  Solving for T, Initial residual = 0.0160807, Final residual = 1.3634e-09, No Iterations 6
DILUPBiCG:  Solving for T, Initial residual = 0.00282919, Final residual = 3.39713e-09, No Iterations 5
DILUPBiCG:  Solving for T, Initial residual = 0.000617793, Final residual = 6.63667e-10, No Iterations 5
 T goes from min(T) [0 0 0 0 0 0 0] -0.218601 to max(T) [0 0 0 0 0 0 0] 0.915163

ExecutionTime = 7.06 s  ClockTime = 147 s

Time = 1.8
Courant Number mean: 1.45879 max: 2.25465
DILUPBiCG:  Solving for T, Initial residual = 0.131319, Final residual = 5.11645e-10, No Iterations 7
DILUPBiCG:  Solving for T, Initial residual = 0.016343, Final residual = 9.54748e-10, No Iterations 6
DILUPBiCG:  Solving for T, Initial residual = 0.00289407, Final residual = 2.82691e-09, No Iterations 5
DILUPBiCG:  Solving for T, Initial residual = 0.000630218, Final residual = 5.09444e-10, No Iterations 5
 T goes from min(T) [0 0 0 0 0 0 0] -0.22625 to max(T) [0 0 0 0 0 0 0] 0.914708

ExecutionTime = 7.19 s  ClockTime = 150 s

Time = 1.85
Courant Number mean: 1.44123 max: 2.18367
DILUPBiCG:  Solving for T, Initial residual = 0.133272, Final residual = 3.40626e-10, No Iterations 7
DILUPBiCG:  Solving for T, Initial residual = 0.0165247, Final residual = 6.56601e-10, No Iterations 6
DILUPBiCG:  Solving for T, Initial residual = 0.00293646, Final residual = 2.2942e-09, No Iterations 5
DILUPBiCG:  Solving for T, Initial residual = 0.000640018, Final residual = 9.37186e-09, No Iterations 4
 T goes from min(T) [0 0 0 0 0 0 0] -0.234168 to max(T) [0 0 0 0 0 0 0] 0.905017

ExecutionTime = 7.33 s  ClockTime = 153 s

Time = 1.9
Courant Number mean: 1.4236 max: 2.11178
DILUPBiCG:  Solving for T, Initial residual = 0.134853, Final residual = 2.15954e-10, No Iterations 7
DILUPBiCG:  Solving for T, Initial residual = 0.0166614, Final residual = 4.41866e-10, No Iterations 6
DILUPBiCG:  Solving for T, Initial residual = 0.00294939, Final residual = 1.82295e-09, No Iterations 5
DILUPBiCG:  Solving for T, Initial residual = 0.000639364, Final residual = 6.74798e-09, No Iterations 4
 T goes from min(T) [0 0 0 0 0 0 0] -0.235818 to max(T) [0 0 0 0 0 0 0] 0.906283

ExecutionTime = 7.47 s  ClockTime = 155 s

Time = 1.95
Courant Number mean: 1.40588 max: 2.03905
DILUPBiCG:  Solving for T, Initial residual = 0.136731, Final residual = 9.04132e-09, No Iterations 6
DILUPBiCG:  Solving for T, Initial residual = 0.0168055, Final residual = 2.88873e-10, No Iterations 6
DILUPBiCG:  Solving for T, Initial residual = 0.00297678, Final residual = 1.43538e-09, No Iterations 5
DILUPBiCG:  Solving for T, Initial residual = 0.000638983, Final residual = 4.58586e-09, No Iterations 4
 T goes from min(T) [0 0 0 0 0 0 0] -0.244576 to max(T) [0 0 0 0 0 0 0] 0.899015

ExecutionTime = 7.6 s  ClockTime = 158 s

Time = 2
Courant Number mean: 1.38786 max: 1.96526
DILUPBiCG:  Solving for T, Initial residual = 0.138114, Final residual = 5.02154e-09, No Iterations 6
DILUPBiCG:  Solving for T, Initial residual = 0.0168122, Final residual = 1.80476e-10, No Iterations 6
DILUPBiCG:  Solving for T, Initial residual = 0.00296534, Final residual = 1.09257e-09, No Iterations 5
DILUPBiCG:  Solving for T, Initial residual = 0.000636049, Final residual = 2.96938e-09, No Iterations 4
 T goes from min(T) [0 0 0 0 0 0 0] -0.250214 to max(T) [0 0 0 0 0 0 0] 0.89579

ExecutionTime = 7.74 s  ClockTime = 161 s

Time = 2.05
Courant Number mean: 1.36957 max: 1.89106
DILUPBiCG:  Solving for T, Initial residual = 0.139178, Final residual = 2.76511e-09, No Iterations 6
DILUPBiCG:  Solving for T, Initial residual = 0.0167712, Final residual = 1.06598e-10, No Iterations 6
DILUPBiCG:  Solving for T, Initial residual = 0.00294117, Final residual = 7.84405e-09, No Iterations 4
DILUPBiCG:  Solving for T, Initial residual = 0.000627751, Final residual = 1.89788e-09, No Iterations 4
 T goes from min(T) [0 0 0 0 0 0 0] -0.25194 to max(T) [0 0 0 0 0 0 0] 0.895267

ExecutionTime = 7.88 s  ClockTime = 163 s

Time = 2.1
Courant Number mean: 1.35105 max: 1.81596
DILUPBiCG:  Solving for T, Initial residual = 0.140626, Final residual = 1.42273e-09, No Iterations 6
DILUPBiCG:  Solving for T, Initial residual = 0.0167348, Final residual = 5.8598e-11, No Iterations 6
DILUPBiCG:  Solving for T, Initial residual = 0.00291094, Final residual = 5.03558e-09, No Iterations 4
DILUPBiCG:  Solving for T, Initial residual = 0.000612941, Final residual = 1.1515e-09, No Iterations 4
 T goes from min(T) [0 0 0 0 0 0 0] -0.252499 to max(T) [0 0 0 0 0 0 0] 0.88202

ExecutionTime = 8.02 s  ClockTime = 166 s

Time = 2.15
Courant Number mean: 1.3325 max: 1.7403
DILUPBiCG:  Solving for T, Initial residual = 0.141537, Final residual = 6.80607e-09, No Iterations 5
DILUPBiCG:  Solving for T, Initial residual = 0.0166308, Final residual = 6.07979e-09, No Iterations 5
DILUPBiCG:  Solving for T, Initial residual = 0.00286633, Final residual = 3.48879e-09, No Iterations 4
DILUPBiCG:  Solving for T, Initial residual = 0.00059766, Final residual = 6.64135e-10, No Iterations 4
 T goes from min(T) [0 0 0 0 0 0 0] -0.260842 to max(T) [0 0 0 0 0 0 0] 0.887588

ExecutionTime = 8.16 s  ClockTime = 168 s

Time = 2.2
Courant Number mean: 1.31389 max: 1.66414
DILUPBiCG:  Solving for T, Initial residual = 0.142088, Final residual = 3.35625e-09, No Iterations 5
DILUPBiCG:  Solving for T, Initial residual = 0.0164386, Final residual = 5.03887e-09, No Iterations 5
DILUPBiCG:  Solving for T, Initial residual = 0.00281153, Final residual = 2.35573e-09, No Iterations 4
DILUPBiCG:  Solving for T, Initial residual = 0.000581738, Final residual = 3.67085e-10, No Iterations 4
 T goes from min(T) [0 0 0 0 0 0 0] -0.263979 to max(T) [0 0 0 0 0 0 0] 0.885975

ExecutionTime = 8.3 s  ClockTime = 171 s

Time = 2.25
Courant Number mean: 1.2951 max: 1.5874
DILUPBiCG:  Solving for T, Initial residual = 0.142679, Final residual = 1.42621e-09, No Iterations 5
DILUPBiCG:  Solving for T, Initial residual = 0.0161971, Final residual = 9.3107e-09, No Iterations 4
DILUPBiCG:  Solving for T, Initial residual = 0.00274471, Final residual = 1.34609e-09, No Iterations 4
DILUPBiCG:  Solving for T, Initial residual = 0.000562722, Final residual = 1.82808e-10, No Iterations 4
 T goes from min(T) [0 0 0 0 0 0 0] -0.264843 to max(T) [0 0 0 0 0 0 0] 0.875911

ExecutionTime = 8.43 s  ClockTime = 174 s

Time = 2.3
Courant Number mean: 1.27618 max: 1.51045
DILUPBiCG:  Solving for T, Initial residual = 0.143298, Final residual = 4.98735e-10, No Iterations 5
DILUPBiCG:  Solving for T, Initial residual = 0.0159626, Final residual = 8.78066e-09, No Iterations 4
DILUPBiCG:  Solving for T, Initial residual = 0.00266255, Final residual = 5.96449e-10, No Iterations 4
DILUPBiCG:  Solving for T, Initial residual = 0.000539187, Final residual = 8.292e-09, No Iterations 3
 T goes from min(T) [0 0 0 0 0 0 0] -0.265272 to max(T) [0 0 0 0 0 0 0] 0.876623

ExecutionTime = 8.57 s  ClockTime = 176 s

Time = 2.35
Courant Number mean: 1.25716 max: 1.43309
DILUPBiCG:  Solving for T, Initial residual = 0.14383, Final residual = 1.29026e-10, No Iterations 5
DILUPBiCG:  Solving for T, Initial residual = 0.0157174, Final residual = 1.33323e-09, No Iterations 4
DILUPBiCG:  Solving for T, Initial residual = 0.00257977, Final residual = 1.83232e-10, No Iterations 4
DILUPBiCG:  Solving for T, Initial residual = 0.000513189, Final residual = 6.20628e-09, No Iterations 3
 T goes from min(T) [0 0 0 0 0 0 0] -0.266917 to max(T) [0 0 0 0 0 0 0] 0.879889

ExecutionTime = 8.7 s  ClockTime = 179 s

Time = 2.4
Courant Number mean: 1.23814 max: 1.35552
DILUPBiCG:  Solving for T, Initial residual = 0.144169, Final residual = 2.15423e-09, No Iterations 4
DILUPBiCG:  Solving for T, Initial residual = 0.0154062, Final residual = 1.90216e-10, No Iterations 4
DILUPBiCG:  Solving for T, Initial residual = 0.00249288, Final residual = 3.38676e-11, No Iterations 4
DILUPBiCG:  Solving for T, Initial residual = 0.00048593, Final residual = 6.87508e-09, No Iterations 3
 T goes from min(T) [0 0 0 0 0 0 0] -0.272326 to max(T) [0 0 0 0 0 0 0] 0.877737

ExecutionTime = 8.85 s  ClockTime = 182 s

Time = 2.45
Courant Number mean: 1.21909 max: 1.2778
DILUPBiCG:  Solving for T, Initial residual = 0.144248, Final residual = 1.4702e-10, No Iterations 4
DILUPBiCG:  Solving for T, Initial residual = 0.0150424, Final residual = 1.98984e-09, No Iterations 3
DILUPBiCG:  Solving for T, Initial residual = 0.00240376, Final residual = 3.79187e-10, No Iterations 3
DILUPBiCG:  Solving for T, Initial residual = 0.000459503, Final residual = 1.07781e-10, No Iterations 3
 T goes from min(T) [0 0 0 0 0 0 0] -0.275757 to max(T) [0 0 0 0 0 0 0] 0.871701

ExecutionTime = 8.99 s  ClockTime = 184 s

Time = 2.5
Courant Number mean: 1.2 max: 1.2
DILUPBiCG:  Solving for T, Initial residual = 0.144137, Final residual = 1.06696e-18, No Iterations 2
DILUPBiCG:  Solving for T, Initial residual = 0.0146346, Final residual = 3.20498e-19, No Iterations 2
DILUPBiCG:  Solving for T, Initial residual = 0.00231124, Final residual = 1.87518e-20, No Iterations 2
DILUPBiCG:  Solving for T, Initial residual = 0.000433448, Final residual = 1.44811e-20, No Iterations 2
 T goes from min(T) [0 0 0 0 0 0 0] -0.277915 to max(T) [0 0 0 0 0 0 0] 0.865714

ExecutionTime = 9.15 s  ClockTime = 187 s

Time = 2.55
Courant Number mean: 1.21909 max: 1.2778
DILUPBiCG:  Solving for T, Initial residual = 0.143908, Final residual = 2.40484e-10, No Iterations 4
DILUPBiCG:  Solving for T, Initial residual = 0.0143918, Final residual = 1.87668e-09, No Iterations 3
DILUPBiCG:  Solving for T, Initial residual = 0.00224303, Final residual = 2.88339e-10, No Iterations 3
DILUPBiCG:  Solving for T, Initial residual = 0.000414334, Final residual = 6.59565e-11, No Iterations 3
 T goes from min(T) [0 0 0 0 0 0 0] -0.280629 to max(T) [0 0 0 0 0 0 0] 0.870139

ExecutionTime = 9.33 s  ClockTime = 191 s

Time = 2.6
Courant Number mean: 1.23814 max: 1.35552
DILUPBiCG:  Solving for T, Initial residual = 0.143532, Final residual = 2.26961e-09, No Iterations 4
DILUPBiCG:  Solving for T, Initial residual = 0.0141453, Final residual = 1.71817e-10, No Iterations 4
DILUPBiCG:  Solving for T, Initial residual = 0.00216946, Final residual = 1.88035e-09, No Iterations 3
DILUPBiCG:  Solving for T, Initial residual = 0.000395385, Final residual = 3.78941e-10, No Iterations 3
 T goes from min(T) [0 0 0 0 0 0 0] -0.282699 to max(T) [0 0 0 0 0 0 0] 0.872749

ExecutionTime = 9.47 s  ClockTime = 193 s

Time = 2.65
Courant Number mean: 1.25716 max: 1.43309
DILUPBiCG:  Solving for T, Initial residual = 0.14297, Final residual = 9.3711e-09, No Iterations 4
DILUPBiCG:  Solving for T, Initial residual = 0.0138787, Final residual = 7.0325e-10, No Iterations 4
DILUPBiCG:  Solving for T, Initial residual = 0.00209355, Final residual = 5.69286e-09, No Iterations 3
DILUPBiCG:  Solving for T, Initial residual = 0.00037657, Final residual = 1.09406e-09, No Iterations 3
 T goes from min(T) [0 0 0 0 0 0 0] -0.284366 to max(T) [0 0 0 0 0 0 0] 0.873286

ExecutionTime = 9.61 s  ClockTime = 196 s

Time = 2.7
Courant Number mean: 1.27618 max: 1.51045
DILUPBiCG:  Solving for T, Initial residual = 0.142327, Final residual = 5.37319e-10, No Iterations 5
DILUPBiCG:  Solving for T, Initial residual = 0.0135711, Final residual = 2.70965e-09, No Iterations 4
DILUPBiCG:  Solving for T, Initial residual = 0.00201533, Final residual = 9.51002e-10, No Iterations 4
DILUPBiCG:  Solving for T, Initial residual = 0.000358179, Final residual = 2.28828e-09, No Iterations 3
 T goes from min(T) [0 0 0 0 0 0 0] -0.286153 to max(T) [0 0 0 0 0 0 0] 0.872553

ExecutionTime = 9.74 s  ClockTime = 199 s

Time = 2.75
Courant Number mean: 1.2951 max: 1.5874
DILUPBiCG:  Solving for T, Initial residual = 0.141542, Final residual = 1.45613e-09, No Iterations 5
DILUPBiCG:  Solving for T, Initial residual = 0.0132506, Final residual = 2.90973e-10, No Iterations 5
DILUPBiCG:  Solving for T, Initial residual = 0.00193557, Final residual = 1.22012e-09, No Iterations 4
DILUPBiCG:  Solving for T, Initial residual = 0.000340492, Final residual = 3.95988e-09, No Iterations 3
 T goes from min(T) [0 0 0 0 0 0 0] -0.28825 to max(T) [0 0 0 0 0 0 0] 0.871191

ExecutionTime = 9.87 s  ClockTime = 201 s

Time = 2.8
Courant Number mean: 1.31389 max: 1.66414
DILUPBiCG:  Solving for T, Initial residual = 0.140583, Final residual = 3.05186e-09, No Iterations 5
DILUPBiCG:  Solving for T, Initial residual = 0.0129175, Final residual = 9.98086e-09, No Iterations 4
DILUPBiCG:  Solving for T, Initial residual = 0.00185785, Final residual = 1.8554e-09, No Iterations 4
DILUPBiCG:  Solving for T, Initial residual = 0.000323878, Final residual = 6.02305e-09, No Iterations 3
 T goes from min(T) [0 0 0 0 0 0 0] -0.290499 to max(T) [0 0 0 0 0 0 0] 0.869635

ExecutionTime = 10 s  ClockTime = 203 s

Time = 2.85
Courant Number mean: 1.3325 max: 1.7403
DILUPBiCG:  Solving for T, Initial residual = 0.139454, Final residual = 5.76047e-09, No Iterations 5
DILUPBiCG:  Solving for T, Initial residual = 0.0125731, Final residual = 1.10507e-09, No Iterations 5
DILUPBiCG:  Solving for T, Initial residual = 0.00178504, Final residual = 2.71933e-09, No Iterations 4
DILUPBiCG:  Solving for T, Initial residual = 0.000308788, Final residual = 8.44263e-09, No Iterations 3
 T goes from min(T) [0 0 0 0 0 0 0] -0.2932 to max(T) [0 0 0 0 0 0 0] 0.868098

ExecutionTime = 10.13 s  ClockTime = 206 s

Time = 2.9
Courant Number mean: 1.35105 max: 1.81596
DILUPBiCG:  Solving for T, Initial residual = 0.138114, Final residual = 7.32588e-10, No Iterations 6
DILUPBiCG:  Solving for T, Initial residual = 0.0122357, Final residual = 1.58808e-09, No Iterations 5
DILUPBiCG:  Solving for T, Initial residual = 0.00171867, Final residual = 3.7211e-09, No Iterations 4
DILUPBiCG:  Solving for T, Initial residual = 0.000295272, Final residual = 1.44277e-09, No Iterations 4
 T goes from min(T) [0 0 0 0 0 0 0] -0.296713 to max(T) [0 0 0 0 0 0 0] 0.866544

ExecutionTime = 10.26 s  ClockTime = 208 s

Time = 2.95
Courant Number mean: 1.36957 max: 1.89106
DILUPBiCG:  Solving for T, Initial residual = 0.136725, Final residual = 1.13302e-09, No Iterations 6
DILUPBiCG:  Solving for T, Initial residual = 0.011922, Final residual = 2.2332e-09, No Iterations 5
DILUPBiCG:  Solving for T, Initial residual = 0.00165699, Final residual = 4.78042e-09, No Iterations 4
DILUPBiCG:  Solving for T, Initial residual = 0.000283122, Final residual = 1.77282e-09, No Iterations 4
 T goes from min(T) [0 0 0 0 0 0 0] -0.297062 to max(T) [0 0 0 0 0 0 0] 0.866597

ExecutionTime = 10.4 s  ClockTime = 211 s

Time = 3
Courant Number mean: 1.38786 max: 1.96526
DILUPBiCG:  Solving for T, Initial residual = 0.135437, Final residual = 1.56789e-09, No Iterations 6
DILUPBiCG:  Solving for T, Initial residual = 0.0116327, Final residual = 3.05487e-09, No Iterations 5
DILUPBiCG:  Solving for T, Initial residual = 0.0015973, Final residual = 5.8578e-09, No Iterations 4
DILUPBiCG:  Solving for T, Initial residual = 0.000272114, Final residual = 2.01506e-09, No Iterations 4
 T goes from min(T) [0 0 0 0 0 0 0] -0.301859 to max(T) [0 0 0 0 0 0 0] 0.869061

ExecutionTime = 10.54 s  ClockTime = 213 s

Time = 3.05
Courant Number mean: 1.40588 max: 2.03905
DILUPBiCG:  Solving for T, Initial residual = 0.134038, Final residual = 2.35482e-09, No Iterations 6
DILUPBiCG:  Solving for T, Initial residual = 0.0113474, Final residual = 4.21898e-09, No Iterations 5
DILUPBiCG:  Solving for T, Initial residual = 0.00154246, Final residual = 7.12379e-09, No Iterations 4
DILUPBiCG:  Solving for T, Initial residual = 0.000262937, Final residual = 2.20229e-09, No Iterations 4
 T goes from min(T) [0 0 0 0 0 0 0] -0.302891 to max(T) [0 0 0 0 0 0 0] 0.870766

ExecutionTime = 10.67 s  ClockTime = 216 s

Time = 3.1
Courant Number mean: 1.4236 max: 2.11178
DILUPBiCG:  Solving for T, Initial residual = 0.132373, Final residual = 7.23436e-09, No Iterations 6
DILUPBiCG:  Solving for T, Initial residual = 0.0110637, Final residual = 5.78618e-09, No Iterations 5
DILUPBiCG:  Solving for T, Initial residual = 0.00149545, Final residual = 8.62854e-09, No Iterations 4
DILUPBiCG:  Solving for T, Initial residual = 0.000255788, Final residual = 2.27777e-09, No Iterations 4
 T goes from min(T) [0 0 0 0 0 0 0] -0.306191 to max(T) [0 0 0 0 0 0 0] 0.870746

ExecutionTime = 10.81 s  ClockTime = 218 s

Time = 3.15
Courant Number mean: 1.44123 max: 2.18367
DILUPBiCG:  Solving for T, Initial residual = 0.130495, Final residual = 5.20887e-09, No Iterations 6
DILUPBiCG:  Solving for T, Initial residual = 0.0108211, Final residual = 7.53912e-09, No Iterations 5
DILUPBiCG:  Solving for T, Initial residual = 0.00145816, Final residual = 9.21153e-10, No Iterations 5
DILUPBiCG:  Solving for T, Initial residual = 0.000250076, Final residual = 2.2978e-09, No Iterations 4
 T goes from min(T) [0 0 0 0 0 0 0] -0.306662 to max(T) [0 0 0 0 0 0 0] 0.867851

ExecutionTime = 10.94 s  ClockTime = 220 s

Time = 3.2
Courant Number mean: 1.45879 max: 2.25465
DILUPBiCG:  Solving for T, Initial residual = 0.128665, Final residual = 7.40499e-09, No Iterations 6
DILUPBiCG:  Solving for T, Initial residual = 0.0106515, Final residual = 9.90023e-09, No Iterations 5
DILUPBiCG:  Solving for T, Initial residual = 0.00142609, Final residual = 1.26099e-09, No Iterations 5
DILUPBiCG:  Solving for T, Initial residual = 0.000245922, Final residual = 2.31101e-09, No Iterations 4
 T goes from min(T) [0 0 0 0 0 0 0] -0.310126 to max(T) [0 0 0 0 0 0 0] 0.871508

ExecutionTime = 11.07 s  ClockTime = 223 s

Time = 3.25
Courant Number mean: 1.47599 max: 2.32428
DILUPBiCG:  Solving for T, Initial residual = 0.126882, Final residual = 7.19531e-10, No Iterations 7
DILUPBiCG:  Solving for T, Initial residual = 0.0105021, Final residual = 6.58897e-09, No Iterations 6
DILUPBiCG:  Solving for T, Initial residual = 0.00139693, Final residual = 1.71244e-09, No Iterations 5
DILUPBiCG:  Solving for T, Initial residual = 0.000242753, Final residual = 2.36365e-09, No Iterations 4
 T goes from min(T) [0 0 0 0 0 0 0] -0.311377 to max(T) [0 0 0 0 0 0 0] 0.871956

ExecutionTime = 11.21 s  ClockTime = 225 s

Time = 3.3
Courant Number mean: 1.49281 max: 2.3933
DILUPBiCG:  Solving for T, Initial residual = 0.124928, Final residual = 9.91901e-10, No Iterations 7
DILUPBiCG:  Solving for T, Initial residual = 0.0103586, Final residual = 7.77082e-09, No Iterations 6
DILUPBiCG:  Solving for T, Initial residual = 0.00137107, Final residual = 2.32989e-09, No Iterations 5
DILUPBiCG:  Solving for T, Initial residual = 0.00024085, Final residual = 2.45653e-09, No Iterations 4
 T goes from min(T) [0 0 0 0 0 0 0] -0.313465 to max(T) [0 0 0 0 0 0 0] 0.871692

ExecutionTime = 11.37 s  ClockTime = 228 s

Time = 3.35
Courant Number mean: 1.50919 max: 2.46081
DILUPBiCG:  Solving for T, Initial residual = 0.122755, Final residual = 1.3139e-09, No Iterations 7
DILUPBiCG:  Solving for T, Initial residual = 0.0102094, Final residual = 1.0904e-10, No Iterations 7
DILUPBiCG:  Solving for T, Initial residual = 0.00134694, Final residual = 3.20519e-09, No Iterations 5
DILUPBiCG:  Solving for T, Initial residual = 0.00024023, Final residual = 2.65599e-09, No Iterations 4
 T goes from min(T) [0 0 0 0 0 0 0] -0.312406 to max(T) [0 0 0 0 0 0 0] 0.872042

ExecutionTime = 11.52 s  ClockTime = 230 s

Time = 3.4
Courant Number mean: 1.52546 max: 2.52715
DILUPBiCG:  Solving for T, Initial residual = 0.120528, Final residual = 1.66628e-09, No Iterations 7
DILUPBiCG:  Solving for T, Initial residual = 0.0100675, Final residual = 1.35518e-10, No Iterations 7
DILUPBiCG:  Solving for T, Initial residual = 0.00132749, Final residual = 4.37271e-09, No Iterations 5
DILUPBiCG:  Solving for T, Initial residual = 0.00024052, Final residual = 2.91718e-09, No Iterations 4
 T goes from min(T) [0 0 0 0 0 0 0] -0.312176 to max(T) [0 0 0 0 0 0 0] 0.871782

ExecutionTime = 11.67 s  ClockTime = 233 s

Time = 3.45
Courant Number mean: 1.54163 max: 2.59228
DILUPBiCG:  Solving for T, Initial residual = 0.118189, Final residual = 2.04862e-09, No Iterations 7
DILUPBiCG:  Solving for T, Initial residual = 0.00991615, Final residual = 1.64474e-10, No Iterations 7
DILUPBiCG:  Solving for T, Initial residual = 0.00131029, Final residual = 5.67047e-09, No Iterations 5
DILUPBiCG:  Solving for T, Initial residual = 0.000241471, Final residual = 3.12192e-09, No Iterations 4
 T goes from min(T) [0 0 0 0 0 0 0] -0.314894 to max(T) [0 0 0 0 0 0 0] 0.86815

ExecutionTime = 11.81 s  ClockTime = 235 s

Time = 3.5
Courant Number mean: 1.55733 max: 2.65562
DILUPBiCG:  Solving for T, Initial residual = 0.115715, Final residual = 2.67237e-09, No Iterations 7
DILUPBiCG:  Solving for T, Initial residual = 0.00976613, Final residual = 1.93364e-10, No Iterations 7
DILUPBiCG:  Solving for T, Initial residual = 0.00129524, Final residual = 6.92515e-09, No Iterations 5
DILUPBiCG:  Solving for T, Initial residual = 0.000243339, Final residual = 3.52159e-09, No Iterations 4
 T goes from min(T) [0 0 0 0 0 0 0] -0.31626 to max(T) [0 0 0 0 0 0 0] 0.863873

ExecutionTime = 11.93 s  ClockTime = 237 s

Time = 3.55
Courant Number mean: 1.57252 max: 2.71817
DILUPBiCG:  Solving for T, Initial residual = 0.113403, Final residual = 3.85273e-09, No Iterations 7
DILUPBiCG:  Solving for T, Initial residual = 0.00961218, Final residual = 2.22415e-10, No Iterations 7
DILUPBiCG:  Solving for T, Initial residual = 0.00128168, Final residual = 7.62227e-09, No Iterations 5
DILUPBiCG:  Solving for T, Initial residual = 0.000245948, Final residual = 3.7629e-09, No Iterations 4
 T goes from min(T) [0 0 0 0 0 0 0] -0.316311 to max(T) [0 0 0 0 0 0 0] 0.85658

ExecutionTime = 12.06 s  ClockTime = 239 s

Time = 3.6
Courant Number mean: 1.58722 max: 2.77879
DILUPBiCG:  Solving for T, Initial residual = 0.111262, Final residual = 5.15745e-09, No Iterations 7
DILUPBiCG:  Solving for T, Initial residual = 0.00946374, Final residual = 2.52651e-10, No Iterations 7
DILUPBiCG:  Solving for T, Initial residual = 0.00127096, Final residual = 7.36723e-09, No Iterations 5
DILUPBiCG:  Solving for T, Initial residual = 0.00024893, Final residual = 4.31503e-09, No Iterations 4
 T goes from min(T) [0 0 0 0 0 0 0] -0.315109 to max(T) [0 0 0 0 0 0 0] 0.850813

ExecutionTime = 12.19 s  ClockTime = 242 s

Time = 3.65
Courant Number mean: 1.60238 max: 2.83796
DILUPBiCG:  Solving for T, Initial residual = 0.109255, Final residual = 5.85443e-09, No Iterations 7
DILUPBiCG:  Solving for T, Initial residual = 0.00933728, Final residual = 2.87705e-10, No Iterations 7
DILUPBiCG:  Solving for T, Initial residual = 0.00126031, Final residual = 6.62084e-09, No Iterations 5
DILUPBiCG:  Solving for T, Initial residual = 0.000253073, Final residual = 4.72398e-09, No Iterations 4
 T goes from min(T) [0 0 0 0 0 0 0] -0.311216 to max(T) [0 0 0 0 0 0 0] 0.856864

ExecutionTime = 12.31 s  ClockTime = 244 s

Time = 3.7
Courant Number mean: 1.61807 max: 2.89562
DILUPBiCG:  Solving for T, Initial residual = 0.107533, Final residual = 6.18417e-09, No Iterations 7
DILUPBiCG:  Solving for T, Initial residual = 0.00923702, Final residual = 3.54605e-10, No Iterations 7
DILUPBiCG:  Solving for T, Initial residual = 0.00125488, Final residual = 5.51581e-09, No Iterations 5
DILUPBiCG:  Solving for T, Initial residual = 0.000257468, Final residual = 5.55177e-09, No Iterations 4
 T goes from min(T) [0 0 0 0 0 0 0] -0.31395 to max(T) [0 0 0 0 0 0 0] 0.866094

ExecutionTime = 12.45 s  ClockTime = 246 s

Time = 3.75
Courant Number mean: 1.6337 max: 2.95111
DILUPBiCG:  Solving for T, Initial residual = 0.1058, Final residual = 6.53884e-09, No Iterations 7
DILUPBiCG:  Solving for T, Initial residual = 0.00916603, Final residual = 4.89951e-09, No Iterations 6
DILUPBiCG:  Solving for T, Initial residual = 0.00126132, Final residual = 4.18874e-09, No Iterations 5
DILUPBiCG:  Solving for T, Initial residual = 0.000263506, Final residual = 6.19034e-09, No Iterations 4
 T goes from min(T) [0 0 0 0 0 0 0] -0.313245 to max(T) [0 0 0 0 0 0 0] 0.870086

ExecutionTime = 12.57 s  ClockTime = 248 s

Time = 3.8
Courant Number mean: 1.64919 max: 3.00565
DILUPBiCG:  Solving for T, Initial residual = 0.104189, Final residual = 2.74832e-09, No Iterations 8
DILUPBiCG:  Solving for T, Initial residual = 0.00913409, Final residual = 4.88508e-10, No Iterations 7
DILUPBiCG:  Solving for T, Initial residual = 0.00127269, Final residual = 3.86389e-09, No Iterations 5
DILUPBiCG:  Solving for T, Initial residual = 0.000270685, Final residual = 6.59968e-09, No Iterations 4
 T goes from min(T) [0 0 0 0 0 0 0] -0.31296 to max(T) [0 0 0 0 0 0 0] 0.863433

ExecutionTime = 12.7 s  ClockTime = 250 s

Time = 3.85
Courant Number mean: 1.66436 max: 3.0579
DILUPBiCG:  Solving for T, Initial residual = 0.102739, Final residual = 7.70883e-09, No Iterations 8
DILUPBiCG:  Solving for T, Initial residual = 0.00912216, Final residual = 5.76162e-10, No Iterations 7
DILUPBiCG:  Solving for T, Initial residual = 0.0012896, Final residual = 9.54354e-10, No Iterations 6
DILUPBiCG:  Solving for T, Initial residual = 0.000280005, Final residual = 4.11935e-09, No Iterations 5
 T goes from min(T) [0 0 0 0 0 0 0] -0.311287 to max(T) [0 0 0 0 0 0 0] 0.848918

ExecutionTime = 12.83 s  ClockTime = 253 s

Time = 3.9
Courant Number mean: 1.6797 max: 3.10843
DILUPBiCG:  Solving for T, Initial residual = 0.101278, Final residual = 1.50856e-09, No Iterations 8
DILUPBiCG:  Solving for T, Initial residual = 0.00912389, Final residual = 9.47756e-10, No Iterations 7
DILUPBiCG:  Solving for T, Initial residual = 0.00130863, Final residual = 7.786e-10, No Iterations 6
DILUPBiCG:  Solving for T, Initial residual = 0.000289485, Final residual = 1.68065e-09, No Iterations 5
 T goes from min(T) [0 0 0 0 0 0 0] -0.312962 to max(T) [0 0 0 0 0 0 0] 0.866656

ExecutionTime = 12.97 s  ClockTime = 255 s

Time = 3.95
Courant Number mean: 1.69512 max: 3.15721
DILUPBiCG:  Solving for T, Initial residual = 0.100068, Final residual = 6.59986e-09, No Iterations 8
DILUPBiCG:  Solving for T, Initial residual = 0.00915073, Final residual = 1.50211e-09, No Iterations 7
DILUPBiCG:  Solving for T, Initial residual = 0.00132964, Final residual = 8.42162e-09, No Iterations 5
DILUPBiCG:  Solving for T, Initial residual = 0.000298724, Final residual = 1.37362e-09, No Iterations 5
 T goes from min(T) [0 0 0 0 0 0 0] -0.312112 to max(T) [0 0 0 0 0 0 0] 0.865428

ExecutionTime = 13.11 s  ClockTime = 257 s

Time = 4
Courant Number mean: 1.70996 max: 3.20349
DILUPBiCG:  Solving for T, Initial residual = 0.0991157, Final residual = 6.08299e-09, No Iterations 8
DILUPBiCG:  Solving for T, Initial residual = 0.0092198, Final residual = 1.99673e-09, No Iterations 7
DILUPBiCG:  Solving for T, Initial residual = 0.00135683, Final residual = 8.72642e-09, No Iterations 5
DILUPBiCG:  Solving for T, Initial residual = 0.000307101, Final residual = 1.39682e-09, No Iterations 5
 T goes from min(T) [0 0 0 0 0 0 0] -0.309951 to max(T) [0 0 0 0 0 0 0] 0.856932

ExecutionTime = 13.24 s  ClockTime = 259 s

Time = 4.05
Courant Number mean: 1.72428 max: 3.24868
DILUPBiCG:  Solving for T, Initial residual = 0.0982153, Final residual = 1.92048e-09, No Iterations 8
DILUPBiCG:  Solving for T, Initial residual = 0.00927898, Final residual = 1.78131e-09, No Iterations 7
DILUPBiCG:  Solving for T, Initial residual = 0.00138974, Final residual = 2.07404e-09, No Iterations 6
DILUPBiCG:  Solving for T, Initial residual = 0.000315803, Final residual = 2.56563e-09, No Iterations 5
 T goes from min(T) [0 0 0 0 0 0 0] -0.313869 to max(T) [0 0 0 0 0 0 0] 0.866014

ExecutionTime = 13.37 s  ClockTime = 262 s

Time = 4.1
Courant Number mean: 1.73795 max: 3.29126
DILUPBiCG:  Solving for T, Initial residual = 0.0975449, Final residual = 1.33492e-09, No Iterations 8
DILUPBiCG:  Solving for T, Initial residual = 0.00937188, Final residual = 1.05891e-09, No Iterations 7
DILUPBiCG:  Solving for T, Initial residual = 0.00142181, Final residual = 2.74983e-09, No Iterations 6
DILUPBiCG:  Solving for T, Initial residual = 0.000323919, Final residual = 1.91857e-09, No Iterations 5
 T goes from min(T) [0 0 0 0 0 0 0] -0.316713 to max(T) [0 0 0 0 0 0 0] 0.860521

ExecutionTime = 13.51 s  ClockTime = 264 s

Time = 4.15
Courant Number mean: 1.75142 max: 3.33191
DILUPBiCG:  Solving for T, Initial residual = 0.0970762, Final residual = 1.80689e-09, No Iterations 8
DILUPBiCG:  Solving for T, Initial residual = 0.00946078, Final residual = 1.27212e-09, No Iterations 7
DILUPBiCG:  Solving for T, Initial residual = 0.00145777, Final residual = 1.82802e-10, No Iterations 7
DILUPBiCG:  Solving for T, Initial residual = 0.000334217, Final residual = 2.12966e-09, No Iterations 5
 T goes from min(T) [0 0 0 0 0 0 0] -0.315106 to max(T) [0 0 0 0 0 0 0] 0.863165

ExecutionTime = 13.66 s  ClockTime = 267 s

Time = 4.2
Courant Number mean: 1.7647 max: 3.37061
DILUPBiCG:  Solving for T, Initial residual = 0.0965669, Final residual = 4.05757e-09, No Iterations 8
DILUPBiCG:  Solving for T, Initial residual = 0.00958513, Final residual = 1.66658e-09, No Iterations 7
DILUPBiCG:  Solving for T, Initial residual = 0.00148874, Final residual = 1.57613e-10, No Iterations 7
DILUPBiCG:  Solving for T, Initial residual = 0.000345528, Final residual = 2.96157e-09, No Iterations 5
 T goes from min(T) [0 0 0 0 0 0 0] -0.319452 to max(T) [0 0 0 0 0 0 0] 0.863395

ExecutionTime = 13.83 s  ClockTime = 269 s

Time = 4.25
Courant Number mean: 1.77712 max: 3.40653
DILUPBiCG:  Solving for T, Initial residual = 0.0962758, Final residual = 3.31984e-09, No Iterations 8
DILUPBiCG:  Solving for T, Initial residual = 0.00972676, Final residual = 1.16581e-09, No Iterations 7
DILUPBiCG:  Solving for T, Initial residual = 0.00153038, Final residual = 3.55648e-09, No Iterations 6
DILUPBiCG:  Solving for T, Initial residual = 0.000356913, Final residual = 3.50433e-09, No Iterations 5
 T goes from min(T) [0 0 0 0 0 0 0] -0.322398 to max(T) [0 0 0 0 0 0 0] 0.85848

ExecutionTime = 13.98 s  ClockTime = 272 s

Time = 4.3
Courant Number mean: 1.78877 max: 3.44125
DILUPBiCG:  Solving for T, Initial residual = 0.0961336, Final residual = 1.89574e-09, No Iterations 8
DILUPBiCG:  Solving for T, Initial residual = 0.00987901, Final residual = 1.74073e-09, No Iterations 7
DILUPBiCG:  Solving for T, Initial residual = 0.00157385, Final residual = 1.88023e-09, No Iterations 6
DILUPBiCG:  Solving for T, Initial residual = 0.000370149, Final residual = 3.4345e-09, No Iterations 5
 T goes from min(T) [0 0 0 0 0 0 0] -0.323613 to max(T) [0 0 0 0 0 0 0] 0.856671

ExecutionTime = 14.14 s  ClockTime = 275 s

Time = 4.35
Courant Number mean: 1.79949 max: 3.47313
DILUPBiCG:  Solving for T, Initial residual = 0.0960231, Final residual = 7.81015e-09, No Iterations 8
DILUPBiCG:  Solving for T, Initial residual = 0.0100222, Final residual = 1.42487e-10, No Iterations 8
DILUPBiCG:  Solving for T, Initial residual = 0.00162219, Final residual = 1.62429e-10, No Iterations 7
DILUPBiCG:  Solving for T, Initial residual = 0.00038593, Final residual = 5.86844e-09, No Iterations 5
 T goes from min(T) [0 0 0 0 0 0 0] -0.333721 to max(T) [0 0 0 0 0 0 0] 0.859686

ExecutionTime = 14.27 s  ClockTime = 277 s

Time = 4.4
Courant Number mean: 1.8099 max: 3.5029
DILUPBiCG:  Solving for T, Initial residual = 0.0959186, Final residual = 3.65185e-09, No Iterations 8
DILUPBiCG:  Solving for T, Initial residual = 0.0101828, Final residual = 1.70703e-09, No Iterations 7
DILUPBiCG:  Solving for T, Initial residual = 0.00168133, Final residual = 2.17661e-10, No Iterations 7
DILUPBiCG:  Solving for T, Initial residual = 0.000400666, Final residual = 8.50161e-09, No Iterations 5
 T goes from min(T) [0 0 0 0 0 0 0] -0.333902 to max(T) [0 0 0 0 0 0 0] 0.855139

ExecutionTime = 14.43 s  ClockTime = 280 s

Time = 4.45
Courant Number mean: 1.81996 max: 3.53056
DILUPBiCG:  Solving for T, Initial residual = 0.095794, Final residual = 4.46547e-09, No Iterations 8
DILUPBiCG:  Solving for T, Initial residual = 0.0103421, Final residual = 1.50184e-09, No Iterations 7
DILUPBiCG:  Solving for T, Initial residual = 0.00174301, Final residual = 4.45404e-09, No Iterations 6
DILUPBiCG:  Solving for T, Initial residual = 0.000418363, Final residual = 7.66857e-09, No Iterations 5
 T goes from min(T) [0 0 0 0 0 0 0] -0.345904 to max(T) [0 0 0 0 0 0 0] 0.851139

ExecutionTime = 14.57 s  ClockTime = 282 s

Time = 4.5
Courant Number mean: 1.82901 max: 3.55524
DILUPBiCG:  Solving for T, Initial residual = 0.0955123, Final residual = 8.84866e-09, No Iterations 8
DILUPBiCG:  Solving for T, Initial residual = 0.0104877, Final residual = 2.3168e-09, No Iterations 7
DILUPBiCG:  Solving for T, Initial residual = 0.00180427, Final residual = 3.65491e-09, No Iterations 6
DILUPBiCG:  Solving for T, Initial residual = 0.000436769, Final residual = 8.74914e-09, No Iterations 5
 T goes from min(T) [0 0 0 0 0 0 0] -0.345067 to max(T) [0 0 0 0 0 0 0] 0.851556

ExecutionTime = 14.71 s  ClockTime = 284 s

Time = 4.55
Courant Number mean: 1.83702 max: 3.57864
DILUPBiCG:  Solving for T, Initial residual = 0.095346, Final residual = 6.86027e-09, No Iterations 8
DILUPBiCG:  Solving for T, Initial residual = 0.0106372, Final residual = 3.55997e-09, No Iterations 7
DILUPBiCG:  Solving for T, Initial residual = 0.00186149, Final residual = 4.4322e-09, No Iterations 6
DILUPBiCG:  Solving for T, Initial residual = 0.000454953, Final residual = 7.91755e-09, No Iterations 5
 T goes from min(T) [0 0 0 0 0 0 0] -0.335893 to max(T) [0 0 0 0 0 0 0] 0.842245

ExecutionTime = 14.85 s  ClockTime = 287 s

Time = 4.6
Courant Number mean: 1.84397 max: 3.59902
DILUPBiCG:  Solving for T, Initial residual = 0.0952185, Final residual = 5.47216e-09, No Iterations 8
DILUPBiCG:  Solving for T, Initial residual = 0.0107989, Final residual = 5.16448e-09, No Iterations 7
DILUPBiCG:  Solving for T, Initial residual = 0.00191803, Final residual = 6.47704e-09, No Iterations 6
DILUPBiCG:  Solving for T, Initial residual = 0.000473778, Final residual = 5.01208e-09, No Iterations 5
 T goes from min(T) [0 0 0 0 0 0 0] -0.336335 to max(T) [0 0 0 0 0 0 0] 0.833349

ExecutionTime = 14.98 s  ClockTime = 289 s

Time = 4.65
Courant Number mean: 1.85048 max: 3.61718
DILUPBiCG:  Solving for T, Initial residual = 0.0950171, Final residual = 6.41373e-09, No Iterations 8
DILUPBiCG:  Solving for T, Initial residual = 0.010962, Final residual = 9.61596e-09, No Iterations 7
DILUPBiCG:  Solving for T, Initial residual = 0.00197843, Final residual = 6.37155e-10, No Iterations 7
DILUPBiCG:  Solving for T, Initial residual = 0.000491069, Final residual = 1.60489e-09, No Iterations 6
 T goes from min(T) [0 0 0 0 0 0 0] -0.331297 to max(T) [0 0 0 0 0 0 0] 0.834091

ExecutionTime = 15.11 s  ClockTime = 291 s

Time = 4.7
Courant Number mean: 1.85654 max: 3.63312
DILUPBiCG:  Solving for T, Initial residual = 0.094948, Final residual = 4.87563e-10, No Iterations 9
DILUPBiCG:  Solving for T, Initial residual = 0.0111609, Final residual = 3.71133e-09, No Iterations 7
DILUPBiCG:  Solving for T, Initial residual = 0.00204115, Final residual = 4.13642e-10, No Iterations 7
DILUPBiCG:  Solving for T, Initial residual = 0.000507764, Final residual = 1.54116e-09, No Iterations 6
 T goes from min(T) [0 0 0 0 0 0 0] -0.313647 to max(T) [0 0 0 0 0 0 0] 0.831176

ExecutionTime = 15.25 s  ClockTime = 294 s

Time = 4.75
Courant Number mean: 1.8615 max: 3.64596
DILUPBiCG:  Solving for T, Initial residual = 0.0950964, Final residual = 7.61543e-09, No Iterations 8
DILUPBiCG:  Solving for T, Initial residual = 0.0113815, Final residual = 5.99743e-09, No Iterations 7
DILUPBiCG:  Solving for T, Initial residual = 0.00209574, Final residual = 4.12839e-10, No Iterations 7
DILUPBiCG:  Solving for T, Initial residual = 0.00052358, Final residual = 1.79048e-09, No Iterations 6
 T goes from min(T) [0 0 0 0 0 0 0] -0.296991 to max(T) [0 0 0 0 0 0 0] 0.827959

ExecutionTime = 15.38 s  ClockTime = 296 s

Time = 4.8
Courant Number mean: 1.86533 max: 3.65747
DILUPBiCG:  Solving for T, Initial residual = 0.0953998, Final residual = 6.3108e-09, No Iterations 8
DILUPBiCG:  Solving for T, Initial residual = 0.0115961, Final residual = 3.50781e-09, No Iterations 7
DILUPBiCG:  Solving for T, Initial residual = 0.0021466, Final residual = 8.71625e-10, No Iterations 7
DILUPBiCG:  Solving for T, Initial residual = 0.000537342, Final residual = 2.58885e-09, No Iterations 6
 T goes from min(T) [0 0 0 0 0 0 0] -0.288085 to max(T) [0 0 0 0 0 0 0] 0.821739

ExecutionTime = 15.52 s  ClockTime = 298 s

Time = 4.85
Courant Number mean: 1.86801 max: 3.66584
DILUPBiCG:  Solving for T, Initial residual = 0.095694, Final residual = 6.19375e-09, No Iterations 8
DILUPBiCG:  Solving for T, Initial residual = 0.0118344, Final residual = 5.36521e-09, No Iterations 7
DILUPBiCG:  Solving for T, Initial residual = 0.00220675, Final residual = 1.89072e-09, No Iterations 7
DILUPBiCG:  Solving for T, Initial residual = 0.000553196, Final residual = 9.13243e-10, No Iterations 7
 T goes from min(T) [0 0 0 0 0 0 0] -0.286273 to max(T) [0 0 0 0 0 0 0] 0.816687

ExecutionTime = 15.66 s  ClockTime = 301 s

Time = 4.9
Courant Number mean: 1.87021 max: 3.67195
DILUPBiCG:  Solving for T, Initial residual = 0.0963063, Final residual = 5.83602e-09, No Iterations 8
DILUPBiCG:  Solving for T, Initial residual = 0.0120398, Final residual = 8.03493e-09, No Iterations 7
DILUPBiCG:  Solving for T, Initial residual = 0.00225944, Final residual = 7.78383e-09, No Iterations 6
DILUPBiCG:  Solving for T, Initial residual = 0.000568346, Final residual = 6.72065e-09, No Iterations 6
 T goes from min(T) [0 0 0 0 0 0 0] -0.290253 to max(T) [0 0 0 0 0 0 0] 0.812909

ExecutionTime = 15.79 s  ClockTime = 303 s

Time = 4.95
Courant Number mean: 1.87196 max: 3.67578
DILUPBiCG:  Solving for T, Initial residual = 0.0972394, Final residual = 6.47e-09, No Iterations 8
DILUPBiCG:  Solving for T, Initial residual = 0.0122518, Final residual = 5.43656e-09, No Iterations 8
DILUPBiCG:  Solving for T, Initial residual = 0.00230594, Final residual = 8.51018e-09, No Iterations 6
DILUPBiCG:  Solving for T, Initial residual = 0.000583961, Final residual = 7.61104e-10, No Iterations 7
 T goes from min(T) [0 0 0 0 0 0 0] -0.290324 to max(T) [0 0 0 0 0 0 0] 0.808366

ExecutionTime = 15.93 s  ClockTime = 305 s

Time = 5
Courant Number mean: 1.87253 max: 3.67645
DILUPBiCG:  Solving for T, Initial residual = 0.0980449, Final residual = 4.24729e-09, No Iterations 8
DILUPBiCG:  Solving for T, Initial residual = 0.0125118, Final residual = 1.55215e-10, No Iterations 9
DILUPBiCG:  Solving for T, Initial residual = 0.00235989, Final residual = 2.51435e-09, No Iterations 7
DILUPBiCG:  Solving for T, Initial residual = 0.000599954, Final residual = 9.45834e-09, No Iterations 6
 T goes from min(T) [0 0 0 0 0 0 0] -0.290219 to max(T) [0 0 0 0 0 0 0] 0.803449

ExecutionTime = 16.08 s  ClockTime = 308 s

Time = 5.05
Courant Number mean: 1.87196 max: 3.67578
DILUPBiCG:  Solving for T, Initial residual = 0.0992217, Final residual = 4.18736e-09, No Iterations 8
DILUPBiCG:  Solving for T, Initial residual = 0.0127836, Final residual = 6.36926e-10, No Iterations 9
DILUPBiCG:  Solving for T, Initial residual = 0.00241346, Final residual = 1.61775e-09, No Iterations 7
DILUPBiCG:  Solving for T, Initial residual = 0.000616887, Final residual = 8.17082e-09, No Iterations 6
 T goes from min(T) [0 0 0 0 0 0 0] -0.292176 to max(T) [0 0 0 0 0 0 0] 0.798141

ExecutionTime = 16.22 s  ClockTime = 310 s

Time = 5.1
Courant Number mean: 1.87021 max: 3.67195
DILUPBiCG:  Solving for T, Initial residual = 0.100546, Final residual = 5.11095e-09, No Iterations 8
DILUPBiCG:  Solving for T, Initial residual = 0.0131005, Final residual = 8.78876e-09, No Iterations 7
DILUPBiCG:  Solving for T, Initial residual = 0.00248472, Final residual = 3.79685e-09, No Iterations 7
DILUPBiCG:  Solving for T, Initial residual = 0.000631499, Final residual = 8.96332e-09, No Iterations 5
 T goes from min(T) [0 0 0 0 0 0 0] -0.289424 to max(T) [0 0 0 0 0 0 0] 0.791984

ExecutionTime = 16.35 s  ClockTime = 312 s

Time = 5.15
Courant Number mean: 1.86801 max: 3.66584
DILUPBiCG:  Solving for T, Initial residual = 0.1019, Final residual = 1.16665e-09, No Iterations 9
DILUPBiCG:  Solving for T, Initial residual = 0.0134306, Final residual = 4.96615e-09, No Iterations 7
DILUPBiCG:  Solving for T, Initial residual = 0.00256301, Final residual = 1.44632e-09, No Iterations 7
DILUPBiCG:  Solving for T, Initial residual = 0.000650717, Final residual = 6.2938e-09, No Iterations 5
 T goes from min(T) [0 0 0 0 0 0 0] -0.291122 to max(T) [0 0 0 0 0 0 0] 0.786978

ExecutionTime = 16.48 s  ClockTime = 315 s

Time = 5.2
Courant Number mean: 1.86533 max: 3.65747
DILUPBiCG:  Solving for T, Initial residual = 0.103508, Final residual = 6.1234e-10, No Iterations 9
DILUPBiCG:  Solving for T, Initial residual = 0.0138591, Final residual = 7.08517e-09, No Iterations 7
DILUPBiCG:  Solving for T, Initial residual = 0.00262855, Final residual = 2.72373e-09, No Iterations 7
DILUPBiCG:  Solving for T, Initial residual = 0.000670013, Final residual = 8.00806e-09, No Iterations 5
 T goes from min(T) [0 0 0 0 0 0 0] -0.291841 to max(T) [0 0 0 0 0 0 0] 0.783504

ExecutionTime = 16.62 s  ClockTime = 317 s

Time = 5.25
Courant Number mean: 1.8615 max: 3.64596
DILUPBiCG:  Solving for T, Initial residual = 0.105565, Final residual = 8.11297e-09, No Iterations 8
DILUPBiCG:  Solving for T, Initial residual = 0.0143652, Final residual = 9.38089e-09, No Iterations 8
DILUPBiCG:  Solving for T, Initial residual = 0.00272863, Final residual = 6.08728e-10, No Iterations 8
DILUPBiCG:  Solving for T, Initial residual = 0.000689585, Final residual = 1.59979e-09, No Iterations 7
 T goes from min(T) [0 0 0 0 0 0 0] -0.288443 to max(T) [0 0 0 0 0 0 0] 0.780878

ExecutionTime = 16.75 s  ClockTime = 319 s

Time = 5.3
Courant Number mean: 1.85654 max: 3.63312
DILUPBiCG:  Solving for T, Initial residual = 0.107825, Final residual = 6.71841e-09, No Iterations 8
DILUPBiCG:  Solving for T, Initial residual = 0.0148813, Final residual = 3.35307e-09, No Iterations 7
DILUPBiCG:  Solving for T, Initial residual = 0.00283162, Final residual = 4.04309e-09, No Iterations 6
DILUPBiCG:  Solving for T, Initial residual = 0.000715787, Final residual = 1.38927e-09, No Iterations 6
 T goes from min(T) [0 0 0 0 0 0 0] -0.281862 to max(T) [0 0 0 0 0 0 0] 0.774115

ExecutionTime = 16.88 s  ClockTime = 321 s

Time = 5.35
Courant Number mean: 1.85048 max: 3.61718
DILUPBiCG:  Solving for T, Initial residual = 0.110372, Final residual = 3.13131e-09, No Iterations 8
DILUPBiCG:  Solving for T, Initial residual = 0.0154183, Final residual = 6.04278e-09, No Iterations 7
DILUPBiCG:  Solving for T, Initial residual = 0.00296095, Final residual = 3.64724e-09, No Iterations 6
DILUPBiCG:  Solving for T, Initial residual = 0.000744064, Final residual = 7.35939e-10, No Iterations 6
 T goes from min(T) [0 0 0 0 0 0 0] -0.284256 to max(T) [0 0 0 0 0 0 0] 0.767911

ExecutionTime = 17.04 s  ClockTime = 324 s

Time = 5.4
Courant Number mean: 1.84397 max: 3.59902
DILUPBiCG:  Solving for T, Initial residual = 0.11285, Final residual = 4.75822e-09, No Iterations 8
DILUPBiCG:  Solving for T, Initial residual = 0.0159711, Final residual = 8.4583e-09, No Iterations 7
DILUPBiCG:  Solving for T, Initial residual = 0.00311637, Final residual = 4.31083e-09, No Iterations 6
DILUPBiCG:  Solving for T, Initial residual = 0.000777248, Final residual = 9.53712e-09, No Iterations 5
 T goes from min(T) [0 0 0 0 0 0 0] -0.282278 to max(T) [0 0 0 0 0 0 0] 0.765669

ExecutionTime = 17.18 s  ClockTime = 326 s

Time = 5.45
Courant Number mean: 1.83702 max: 3.57864
DILUPBiCG:  Solving for T, Initial residual = 0.115034, Final residual = 4.01193e-09, No Iterations 8
DILUPBiCG:  Solving for T, Initial residual = 0.0165383, Final residual = 6.87073e-09, No Iterations 7
DILUPBiCG:  Solving for T, Initial residual = 0.00328453, Final residual = 4.32014e-09, No Iterations 6
DILUPBiCG:  Solving for T, Initial residual = 0.000822869, Final residual = 8.10852e-09, No Iterations 5
 T goes from min(T) [0 0 0 0 0 0 0] -0.277507 to max(T) [0 0 0 0 0 0 0] 0.759432

ExecutionTime = 17.32 s  ClockTime = 329 s

Time = 5.5
Courant Number mean: 1.82901 max: 3.55524
DILUPBiCG:  Solving for T, Initial residual = 0.117579, Final residual = 3.37839e-10, No Iterations 9
DILUPBiCG:  Solving for T, Initial residual = 0.0171871, Final residual = 3.16259e-09, No Iterations 7
DILUPBiCG:  Solving for T, Initial residual = 0.0034717, Final residual = 3.46832e-09, No Iterations 6
DILUPBiCG:  Solving for T, Initial residual = 0.000872847, Final residual = 8.20657e-09, No Iterations 5
 T goes from min(T) [0 0 0 0 0 0 0] -0.270046 to max(T) [0 0 0 0 0 0 0] 0.754963

ExecutionTime = 17.46 s  ClockTime = 331 s

Time = 5.55
Courant Number mean: 1.81996 max: 3.53056
DILUPBiCG:  Solving for T, Initial residual = 0.119898, Final residual = 4.88054e-09, No Iterations 8
DILUPBiCG:  Solving for T, Initial residual = 0.0178881, Final residual = 2.30749e-09, No Iterations 7
DILUPBiCG:  Solving for T, Initial residual = 0.00366912, Final residual = 5.56202e-09, No Iterations 6
DILUPBiCG:  Solving for T, Initial residual = 0.000925522, Final residual = 7.90725e-09, No Iterations 5
 T goes from min(T) [0 0 0 0 0 0 0] -0.262556 to max(T) [0 0 0 0 0 0 0] 0.741168

ExecutionTime = 17.6 s  ClockTime = 334 s

Time = 5.6
Courant Number mean: 1.8099 max: 3.5029
DILUPBiCG:  Solving for T, Initial residual = 0.122168, Final residual = 2.77227e-09, No Iterations 8
DILUPBiCG:  Solving for T, Initial residual = 0.0186134, Final residual = 2.61365e-09, No Iterations 7
DILUPBiCG:  Solving for T, Initial residual = 0.00386301, Final residual = 6.99824e-10, No Iterations 7
DILUPBiCG:  Solving for T, Initial residual = 0.000982862, Final residual = 8.38714e-09, No Iterations 5
 T goes from min(T) [0 0 0 0 0 0 0] -0.265012 to max(T) [0 0 0 0 0 0 0] 0.745102

ExecutionTime = 17.73 s  ClockTime = 336 s

Time = 5.65
Courant Number mean: 1.79949 max: 3.47313
DILUPBiCG:  Solving for T, Initial residual = 0.124541, Final residual = 2.27044e-09, No Iterations 8
DILUPBiCG:  Solving for T, Initial residual = 0.0192979, Final residual = 2.39372e-09, No Iterations 7
DILUPBiCG:  Solving for T, Initial residual = 0.00406256, Final residual = 6.50241e-09, No Iterations 6
DILUPBiCG:  Solving for T, Initial residual = 0.00104751, Final residual = 1.37423e-09, No Iterations 6
 T goes from min(T) [0 0 0 0 0 0 0] -0.264579 to max(T) [0 0 0 0 0 0 0] 0.739248

ExecutionTime = 17.87 s  ClockTime = 338 s

Time = 5.7
Courant Number mean: 1.78877 max: 3.44125
DILUPBiCG:  Solving for T, Initial residual = 0.12654, Final residual = 2.89189e-09, No Iterations 8
DILUPBiCG:  Solving for T, Initial residual = 0.0199578, Final residual = 5.58755e-09, No Iterations 7
DILUPBiCG:  Solving for T, Initial residual = 0.00427644, Final residual = 2.94867e-09, No Iterations 6
DILUPBiCG:  Solving for T, Initial residual = 0.00110777, Final residual = 1.72659e-09, No Iterations 6
 T goes from min(T) [0 0 0 0 0 0 0] -0.260839 to max(T) [0 0 0 0 0 0 0] 0.731015

ExecutionTime = 18.01 s  ClockTime = 340 s

Time = 5.75
Courant Number mean: 1.77712 max: 3.40653
DILUPBiCG:  Solving for T, Initial residual = 0.128467, Final residual = 3.13361e-09, No Iterations 8
DILUPBiCG:  Solving for T, Initial residual = 0.0205863, Final residual = 4.28285e-09, No Iterations 7
DILUPBiCG:  Solving for T, Initial residual = 0.00448742, Final residual = 3.2641e-09, No Iterations 6
DILUPBiCG:  Solving for T, Initial residual = 0.0011683, Final residual = 5.50423e-09, No Iterations 5
 T goes from min(T) [0 0 0 0 0 0 0] -0.254599 to max(T) [0 0 0 0 0 0 0] 0.731489

ExecutionTime = 18.14 s  ClockTime = 342 s

Time = 5.8
Courant Number mean: 1.7647 max: 3.37061
DILUPBiCG:  Solving for T, Initial residual = 0.13006, Final residual = 5.69569e-09, No Iterations 8
DILUPBiCG:  Solving for T, Initial residual = 0.0211682, Final residual = 2.14262e-09, No Iterations 7
DILUPBiCG:  Solving for T, Initial residual = 0.00466294, Final residual = 2.99831e-10, No Iterations 7
DILUPBiCG:  Solving for T, Initial residual = 0.00123001, Final residual = 4.46559e-09, No Iterations 5
 T goes from min(T) [0 0 0 0 0 0 0] -0.251743 to max(T) [0 0 0 0 0 0 0] 0.727964

ExecutionTime = 18.27 s  ClockTime = 345 s

Time = 5.85
Courant Number mean: 1.75142 max: 3.33191
DILUPBiCG:  Solving for T, Initial residual = 0.13168, Final residual = 2.67084e-09, No Iterations 8
DILUPBiCG:  Solving for T, Initial residual = 0.0216063, Final residual = 1.23934e-09, No Iterations 7
DILUPBiCG:  Solving for T, Initial residual = 0.0047973, Final residual = 4.62442e-09, No Iterations 6
DILUPBiCG:  Solving for T, Initial residual = 0.00128623, Final residual = 4.4503e-10, No Iterations 6
 T goes from min(T) [0 0 0 0 0 0 0] -0.249821 to max(T) [0 0 0 0 0 0 0] 0.729529

ExecutionTime = 18.4 s  ClockTime = 347 s

Time = 5.9
Courant Number mean: 1.73795 max: 3.29126
DILUPBiCG:  Solving for T, Initial residual = 0.133195, Final residual = 6.46632e-09, No Iterations 8
DILUPBiCG:  Solving for T, Initial residual = 0.0220296, Final residual = 9.61176e-10, No Iterations 7
DILUPBiCG:  Solving for T, Initial residual = 0.00494865, Final residual = 3.54362e-09, No Iterations 6
DILUPBiCG:  Solving for T, Initial residual = 0.00133005, Final residual = 3.27629e-09, No Iterations 5
 T goes from min(T) [0 0 0 0 0 0 0] -0.249332 to max(T) [0 0 0 0 0 0 0] 0.726323

ExecutionTime = 18.53 s  ClockTime = 349 s

Time = 5.95
Courant Number mean: 1.72428 max: 3.24868
DILUPBiCG:  Solving for T, Initial residual = 0.1341, Final residual = 4.51447e-09, No Iterations 8
DILUPBiCG:  Solving for T, Initial residual = 0.0222437, Final residual = 8.52249e-10, No Iterations 7
DILUPBiCG:  Solving for T, Initial residual = 0.00505376, Final residual = 1.78689e-09, No Iterations 6
DILUPBiCG:  Solving for T, Initial residual = 0.00137171, Final residual = 3.12135e-09, No Iterations 5
 T goes from min(T) [0 0 0 0 0 0 0] -0.249093 to max(T) [0 0 0 0 0 0 0] 0.727538

ExecutionTime = 18.67 s  ClockTime = 351 s

Time = 6
Courant Number mean: 1.70996 max: 3.20349
DILUPBiCG:  Solving for T, Initial residual = 0.135564, Final residual = 8.78519e-09, No Iterations 7
DILUPBiCG:  Solving for T, Initial residual = 0.0224101, Final residual = 1.03327e-09, No Iterations 7
DILUPBiCG:  Solving for T, Initial residual = 0.00508579, Final residual = 1.77054e-09, No Iterations 6
DILUPBiCG:  Solving for T, Initial residual = 0.00139834, Final residual = 3.27954e-09, No Iterations 5
 T goes from min(T) [0 0 0 0 0 0 0] -0.248964 to max(T) [0 0 0 0 0 0 0] 0.727326

ExecutionTime = 18.81 s  ClockTime = 353 s

End

