/*---------------------------------------------------------------------------*\
| =========                 |                                                 |
| \\      /  F ield         | OpenFOAM: The Open Source CFD Toolbox           |
|  \\    /   O peration     | Version:  dev                                   |
|   \\  /    A nd           | Web:      www.OpenFOAM.org                      |
|    \\/     M anipulation  |                                                 |
\*---------------------------------------------------------------------------*/
Build  : dev-90f39e0d894d
Exec   : scalarDeformationWithGhosts explicit -case nonOrthogW/240x120/c1_explicit
Date   : May 23 2017
Time   : 20:31:12
Host   : "sws02hw.private.rdg.ac.uk"
PID    : 22902
Case   : nonOrthogW/240x120/c1_explicit
nProcs : 1
sigFpe : Enabling floating point exception trapping (FOAM_SIGFPE).
fileModificationChecking : Monitoring run-time modified files using timeStampMaster (fileModificationSkew 10)
allowSystemOperations : Allowing user-supplied system call operations

// * * * * * * * * * * * * * * * * * * * * * * * * * * * * * * * * * * * * * //
Create time

Create mesh for time = 0

Reading field T

Reading fields phi (compulsory), U and Uf (optional)

Calculating owner stencils
Calculating neighbour stencils

Calculating scalar transport

Courant Number mean: 0.465598 max: 0.965081
Time = 0.005
Courant Number mean: 0.465592 max: 0.966307
diagonal:  Solving for T, Initial residual = 0, Final residual = 0, No Iterations 0
diagonal:  Solving for T, Initial residual = 0, Final residual = 0, No Iterations 0
diagonal:  Solving for T, Initial residual = 0, Final residual = 0, No Iterations 0
diagonal:  Solving for T, Initial residual = 0, Final residual = 0, No Iterations 0
 T goes from min(T) [0 0 0 0 0 0 0] 7.76822e-21 to max(T) [0 0 0 0 0 0 0] 0.953936

ExecutionTime = 8.25 s  ClockTime = 143 s

Time = 0.01
Courant Number mean: 0.465573 max: 0.967512
diagonal:  Solving for T, Initial residual = 0, Final residual = 0, No Iterations 0
diagonal:  Solving for T, Initial residual = 0, Final residual = 0, No Iterations 0
diagonal:  Solving for T, Initial residual = 0, Final residual = 0, No Iterations 0
diagonal:  Solving for T, Initial residual = 0, Final residual = 0, No Iterations 0
 T goes from min(T) [0 0 0 0 0 0 0] 7.4925e-21 to max(T) [0 0 0 0 0 0 0] 0.953262

ExecutionTime = 8.78 s  ClockTime = 157 s

Time = 0.015
Courant Number mean: 0.465539 max: 0.968922
diagonal:  Solving for T, Initial residual = 0, Final residual = 0, No Iterations 0
diagonal:  Solving for T, Initial residual = 0, Final residual = 0, No Iterations 0
diagonal:  Solving for T, Initial residual = 0, Final residual = 0, No Iterations 0
diagonal:  Solving for T, Initial residual = 0, Final residual = 0, No Iterations 0
 T goes from min(T) [0 0 0 0 0 0 0] 7.67163e-21 to max(T) [0 0 0 0 0 0 0] 0.953924

ExecutionTime = 9.29 s  ClockTime = 168 s

Time = 0.02
Courant Number mean: 0.46549 max: 0.970268
diagonal:  Solving for T, Initial residual = 0, Final residual = 0, No Iterations 0
diagonal:  Solving for T, Initial residual = 0, Final residual = 0, No Iterations 0
diagonal:  Solving for T, Initial residual = 0, Final residual = 0, No Iterations 0
diagonal:  Solving for T, Initial residual = 0, Final residual = 0, No Iterations 0
 T goes from min(T) [0 0 0 0 0 0 0] 8.27779e-21 to max(T) [0 0 0 0 0 0 0] 0.953731

ExecutionTime = 9.79 s  ClockTime = 178 s

Time = 0.025
Courant Number mean: 0.465429 max: 0.97155
diagonal:  Solving for T, Initial residual = 0, Final residual = 0, No Iterations 0
diagonal:  Solving for T, Initial residual = 0, Final residual = 0, No Iterations 0
diagonal:  Solving for T, Initial residual = 0, Final residual = 0, No Iterations 0
diagonal:  Solving for T, Initial residual = 0, Final residual = 0, No Iterations 0
 T goes from min(T) [0 0 0 0 0 0 0] 8.09214e-21 to max(T) [0 0 0 0 0 0 0] 0.953922

ExecutionTime = 10.29 s  ClockTime = 187 s

Time = 0.03
Courant Number mean: 0.465355 max: 0.972768
diagonal:  Solving for T, Initial residual = 0, Final residual = 0, No Iterations 0
diagonal:  Solving for T, Initial residual = 0, Final residual = 0, No Iterations 0
diagonal:  Solving for T, Initial residual = 0, Final residual = 0, No Iterations 0
diagonal:  Solving for T, Initial residual = 0, Final residual = 0, No Iterations 0
 T goes from min(T) [0 0 0 0 0 0 0] 7.72581e-21 to max(T) [0 0 0 0 0 0 0] 0.95334

ExecutionTime = 10.8 s  ClockTime = 197 s

Time = 0.035
Courant Number mean: 0.465267 max: 0.973922
diagonal:  Solving for T, Initial residual = 0, Final residual = 0, No Iterations 0
diagonal:  Solving for T, Initial residual = 0, Final residual = 0, No Iterations 0
diagonal:  Solving for T, Initial residual = 0, Final residual = 0, No Iterations 0
diagonal:  Solving for T, Initial residual = 0, Final residual = 0, No Iterations 0
 T goes from min(T) [0 0 0 0 0 0 0] 7.79196e-21 to max(T) [0 0 0 0 0 0 0] 0.953902

ExecutionTime = 11.3 s  ClockTime = 206 s

Time = 0.04
Courant Number mean: 0.465162 max: 0.975012
diagonal:  Solving for T, Initial residual = 0, Final residual = 0, No Iterations 0
diagonal:  Solving for T, Initial residual = 0, Final residual = 0, No Iterations 0
diagonal:  Solving for T, Initial residual = 0, Final residual = 0, No Iterations 0
diagonal:  Solving for T, Initial residual = 0, Final residual = 0, No Iterations 0
 T goes from min(T) [0 0 0 0 0 0 0] 8.27654e-21 to max(T) [0 0 0 0 0 0 0] 0.953782

ExecutionTime = 11.84 s  ClockTime = 217 s

Time = 0.045
Courant Number mean: 0.465046 max: 0.976348
diagonal:  Solving for T, Initial residual = 0, Final residual = 0, No Iterations 0
diagonal:  Solving for T, Initial residual = 0, Final residual = 0, No Iterations 0
diagonal:  Solving for T, Initial residual = 0, Final residual = 0, No Iterations 0
diagonal:  Solving for T, Initial residual = 0, Final residual = 0, No Iterations 0
 T goes from min(T) [0 0 0 0 0 0 0] 8.25413e-21 to max(T) [0 0 0 0 0 0 0] 0.953842

ExecutionTime = 12.33 s  ClockTime = 226 s

Time = 0.05
Courant Number mean: 0.464918 max: 0.97762
diagonal:  Solving for T, Initial residual = 0, Final residual = 0, No Iterations 0
diagonal:  Solving for T, Initial residual = 0, Final residual = 0, No Iterations 0
diagonal:  Solving for T, Initial residual = 0, Final residual = 0, No Iterations 0
diagonal:  Solving for T, Initial residual = 0, Final residual = 0, No Iterations 0
 T goes from min(T) [0 0 0 0 0 0 0] 7.83883e-21 to max(T) [0 0 0 0 0 0 0] 0.953544

ExecutionTime = 12.82 s  ClockTime = 235 s

Time = 0.055
Courant Number mean: 0.464775 max: 0.978828
diagonal:  Solving for T, Initial residual = 0, Final residual = 0, No Iterations 0
diagonal:  Solving for T, Initial residual = 0, Final residual = 0, No Iterations 0
diagonal:  Solving for T, Initial residual = 0, Final residual = 0, No Iterations 0
diagonal:  Solving for T, Initial residual = 0, Final residual = 0, No Iterations 0
 T goes from min(T) [0 0 0 0 0 0 0] 7.83881e-21 to max(T) [0 0 0 0 0 0 0] 0.953857

ExecutionTime = 13.31 s  ClockTime = 243 s

Time = 0.06
Courant Number mean: 0.464616 max: 0.979971
diagonal:  Solving for T, Initial residual = 0, Final residual = 0, No Iterations 0
diagonal:  Solving for T, Initial residual = 0, Final residual = 0, No Iterations 0
diagonal:  Solving for T, Initial residual = 0, Final residual = 0, No Iterations 0
diagonal:  Solving for T, Initial residual = 0, Final residual = 0, No Iterations 0
 T goes from min(T) [0 0 0 0 0 0 0] 8.24615e-21 to max(T) [0 0 0 0 0 0 0] 0.953779

ExecutionTime = 13.84 s  ClockTime = 252 s

Time = 0.065
Courant Number mean: 0.464446 max: 0.981107
diagonal:  Solving for T, Initial residual = 0, Final residual = 0, No Iterations 0
diagonal:  Solving for T, Initial residual = 0, Final residual = 0, No Iterations 0
diagonal:  Solving for T, Initial residual = 0, Final residual = 0, No Iterations 0
diagonal:  Solving for T, Initial residual = 0, Final residual = 0, No Iterations 0
 T goes from min(T) [0 0 0 0 0 0 0] 8.3623e-21 to max(T) [0 0 0 0 0 0 0] 0.953598

ExecutionTime = 14.33 s  ClockTime = 261 s

Time = 0.07
Courant Number mean: 0.464263 max: 0.982302
diagonal:  Solving for T, Initial residual = 0, Final residual = 0, No Iterations 0
diagonal:  Solving for T, Initial residual = 0, Final residual = 0, No Iterations 0
diagonal:  Solving for T, Initial residual = 0, Final residual = 0, No Iterations 0
diagonal:  Solving for T, Initial residual = 0, Final residual = 0, No Iterations 0
 T goes from min(T) [0 0 0 0 0 0 0] 7.89575e-21 to max(T) [0 0 0 0 0 0 0] 0.953727

ExecutionTime = 14.8 s  ClockTime = 269 s

Time = 0.075
Courant Number mean: 0.464066 max: 0.983433
diagonal:  Solving for T, Initial residual = 0, Final residual = 0, No Iterations 0
diagonal:  Solving for T, Initial residual = 0, Final residual = 0, No Iterations 0
diagonal:  Solving for T, Initial residual = 0, Final residual = 0, No Iterations 0
diagonal:  Solving for T, Initial residual = 0, Final residual = 0, No Iterations 0
 T goes from min(T) [0 0 0 0 0 0 0] 7.83398e-21 to max(T) [0 0 0 0 0 0 0] 0.953685

ExecutionTime = 15.27 s  ClockTime = 277 s

Time = 0.08
Courant Number mean: 0.463855 max: 0.984498
diagonal:  Solving for T, Initial residual = 0, Final residual = 0, No Iterations 0
diagonal:  Solving for T, Initial residual = 0, Final residual = 0, No Iterations 0
diagonal:  Solving for T, Initial residual = 0, Final residual = 0, No Iterations 0
diagonal:  Solving for T, Initial residual = 0, Final residual = 0, No Iterations 0
 T goes from min(T) [0 0 0 0 0 0 0] 8.17142e-21 to max(T) [0 0 0 0 0 0 0] 0.953732

ExecutionTime = 15.74 s  ClockTime = 285 s

Time = 0.085
Courant Number mean: 0.463629 max: 0.985606
diagonal:  Solving for T, Initial residual = 0, Final residual = 0, No Iterations 0
diagonal:  Solving for T, Initial residual = 0, Final residual = 0, No Iterations 0
diagonal:  Solving for T, Initial residual = 0, Final residual = 0, No Iterations 0
diagonal:  Solving for T, Initial residual = 0, Final residual = 0, No Iterations 0
 T goes from min(T) [0 0 0 0 0 0 0] 8.44844e-21 to max(T) [0 0 0 0 0 0 0] 0.953708

ExecutionTime = 16.3 s  ClockTime = 294 s

Time = 0.09
Courant Number mean: 0.463391 max: 0.986827
diagonal:  Solving for T, Initial residual = 0, Final residual = 0, No Iterations 0
diagonal:  Solving for T, Initial residual = 0, Final residual = 0, No Iterations 0
diagonal:  Solving for T, Initial residual = 0, Final residual = 0, No Iterations 0
diagonal:  Solving for T, Initial residual = 0, Final residual = 0, No Iterations 0
 T goes from min(T) [0 0 0 0 0 0 0] 7.93065e-21 to max(T) [0 0 0 0 0 0 0] 0.95379

ExecutionTime = 16.83 s  ClockTime = 303 s

Time = 0.095
Courant Number mean: 0.463141 max: 0.988011
diagonal:  Solving for T, Initial residual = 0, Final residual = 0, No Iterations 0
diagonal:  Solving for T, Initial residual = 0, Final residual = 0, No Iterations 0
diagonal:  Solving for T, Initial residual = 0, Final residual = 0, No Iterations 0
diagonal:  Solving for T, Initial residual = 0, Final residual = 0, No Iterations 0
 T goes from min(T) [0 0 0 0 0 0 0] 7.81057e-21 to max(T) [0 0 0 0 0 0 0] 0.953384

ExecutionTime = 17.32 s  ClockTime = 312 s

Time = 0.1
Courant Number mean: 0.462875 max: 0.989131
diagonal:  Solving for T, Initial residual = 0, Final residual = 0, No Iterations 0
diagonal:  Solving for T, Initial residual = 0, Final residual = 0, No Iterations 0
diagonal:  Solving for T, Initial residual = 0, Final residual = 0, No Iterations 0
diagonal:  Solving for T, Initial residual = 0, Final residual = 0, No Iterations 0
 T goes from min(T) [0 0 0 0 0 0 0] 8.08353e-21 to max(T) [0 0 0 0 0 0 0] 0.953818

ExecutionTime = 17.8 s  ClockTime = 320 s

Time = 0.105
Courant Number mean: 0.462595 max: 0.990184
diagonal:  Solving for T, Initial residual = 0, Final residual = 0, No Iterations 0
diagonal:  Solving for T, Initial residual = 0, Final residual = 0, No Iterations 0
diagonal:  Solving for T, Initial residual = 0, Final residual = 0, No Iterations 0
diagonal:  Solving for T, Initial residual = 0, Final residual = 0, No Iterations 0
 T goes from min(T) [0 0 0 0 0 0 0] 8.52718e-21 to max(T) [0 0 0 0 0 0 0] 0.953886

ExecutionTime = 18.28 s  ClockTime = 328 s

Time = 0.11
Courant Number mean: 0.462303 max: 0.991172
diagonal:  Solving for T, Initial residual = 0, Final residual = 0, No Iterations 0
diagonal:  Solving for T, Initial residual = 0, Final residual = 0, No Iterations 0
diagonal:  Solving for T, Initial residual = 0, Final residual = 0, No Iterations 0
diagonal:  Solving for T, Initial residual = 0, Final residual = 0, No Iterations 0
 T goes from min(T) [0 0 0 0 0 0 0] 7.95852e-21 to max(T) [0 0 0 0 0 0 0] 0.953993

ExecutionTime = 18.77 s  ClockTime = 336 s

Time = 0.115
Courant Number mean: 0.461999 max: 0.992126
diagonal:  Solving for T, Initial residual = 0, Final residual = 0, No Iterations 0
diagonal:  Solving for T, Initial residual = 0, Final residual = 0, No Iterations 0
diagonal:  Solving for T, Initial residual = 0, Final residual = 0, No Iterations 0
diagonal:  Solving for T, Initial residual = 0, Final residual = 0, No Iterations 0
 T goes from min(T) [0 0 0 0 0 0 0] 7.78253e-21 to max(T) [0 0 0 0 0 0 0] 0.95364

ExecutionTime = 19.26 s  ClockTime = 345 s

Time = 0.12
Courant Number mean: 0.46168 max: 0.993297
diagonal:  Solving for T, Initial residual = 0, Final residual = 0, No Iterations 0
diagonal:  Solving for T, Initial residual = 0, Final residual = 0, No Iterations 0
diagonal:  Solving for T, Initial residual = 0, Final residual = 0, No Iterations 0
diagonal:  Solving for T, Initial residual = 0, Final residual = 0, No Iterations 0
 T goes from min(T) [0 0 0 0 0 0 0] 7.99478e-21 to max(T) [0 0 0 0 0 0 0] 0.953298

ExecutionTime = 19.76 s  ClockTime = 353 s

Time = 0.125
Courant Number mean: 0.461348 max: 0.994403
diagonal:  Solving for T, Initial residual = 0, Final residual = 0, No Iterations 0
diagonal:  Solving for T, Initial residual = 0, Final residual = 0, No Iterations 0
diagonal:  Solving for T, Initial residual = 0, Final residual = 0, No Iterations 0
diagonal:  Solving for T, Initial residual = 0, Final residual = 0, No Iterations 0
 T goes from min(T) [0 0 0 0 0 0 0] 8.59523e-21 to max(T) [0 0 0 0 0 0 0] 0.953986

ExecutionTime = 20.24 s  ClockTime = 361 s

Time = 0.13
Courant Number mean: 0.461002 max: 0.995442
diagonal:  Solving for T, Initial residual = 0, Final residual = 0, No Iterations 0
diagonal:  Solving for T, Initial residual = 0, Final residual = 0, No Iterations 0
diagonal:  Solving for T, Initial residual = 0, Final residual = 0, No Iterations 0
diagonal:  Solving for T, Initial residual = 0, Final residual = 0, No Iterations 0
 T goes from min(T) [0 0 0 0 0 0 0] 7.98718e-21 to max(T) [0 0 0 0 0 0 0] 0.954099

ExecutionTime = 20.71 s  ClockTime = 369 s

Time = 0.135
Courant Number mean: 0.460644 max: 0.996416
diagonal:  Solving for T, Initial residual = 0, Final residual = 0, No Iterations 0
diagonal:  Solving for T, Initial residual = 0, Final residual = 0, No Iterations 0
diagonal:  Solving for T, Initial residual = 0, Final residual = 0, No Iterations 0
diagonal:  Solving for T, Initial residual = 0, Final residual = 0, No Iterations 0
 T goes from min(T) [0 0 0 0 0 0 0] 7.75719e-21 to max(T) [0 0 0 0 0 0 0] 0.953421

ExecutionTime = 21.2 s  ClockTime = 377 s

Time = 0.14
Courant Number mean: 0.460273 max: 0.997323
diagonal:  Solving for T, Initial residual = 0, Final residual = 0, No Iterations 0
diagonal:  Solving for T, Initial residual = 0, Final residual = 0, No Iterations 0
diagonal:  Solving for T, Initial residual = 0, Final residual = 0, No Iterations 0
diagonal:  Solving for T, Initial residual = 0, Final residual = 0, No Iterations 0
 T goes from min(T) [0 0 0 0 0 0 0] 7.91164e-21 to max(T) [0 0 0 0 0 0 0] 0.953484

ExecutionTime = 21.69 s  ClockTime = 385 s

Time = 0.145
Courant Number mean: 0.459886 max: 0.998293
diagonal:  Solving for T, Initial residual = 0, Final residual = 0, No Iterations 0
diagonal:  Solving for T, Initial residual = 0, Final residual = 0, No Iterations 0
diagonal:  Solving for T, Initial residual = 0, Final residual = 0, No Iterations 0
diagonal:  Solving for T, Initial residual = 0, Final residual = 0, No Iterations 0
 T goes from min(T) [0 0 0 0 0 0 0] 8.45082e-21 to max(T) [0 0 0 0 0 0 0] 0.953901

ExecutionTime = 22.23 s  ClockTime = 394 s

Time = 0.15
Courant Number mean: 0.459486 max: 0.999258
diagonal:  Solving for T, Initial residual = 0, Final residual = 0, No Iterations 0
diagonal:  Solving for T, Initial residual = 0, Final residual = 0, No Iterations 0
diagonal:  Solving for T, Initial residual = 0, Final residual = 0, No Iterations 0
diagonal:  Solving for T, Initial residual = 0, Final residual = 0, No Iterations 0
 T goes from min(T) [0 0 0 0 0 0 0] 8.01852e-21 to max(T) [0 0 0 0 0 0 0] 0.954018

ExecutionTime = 22.69 s  ClockTime = 402 s

Time = 0.155
Courant Number mean: 0.459076 max: 1.00026
diagonal:  Solving for T, Initial residual = 0, Final residual = 0, No Iterations 0
diagonal:  Solving for T, Initial residual = 0, Final residual = 0, No Iterations 0
diagonal:  Solving for T, Initial residual = 0, Final residual = 0, No Iterations 0
diagonal:  Solving for T, Initial residual = 0, Final residual = 0, No Iterations 0
 T goes from min(T) [0 0 0 0 0 0 0] 7.73586e-21 to max(T) [0 0 0 0 0 0 0] 0.953533

ExecutionTime = 23.16 s  ClockTime = 410 s

Time = 0.16
Courant Number mean: 0.458659 max: 1.00122
diagonal:  Solving for T, Initial residual = 0, Final residual = 0, No Iterations 0
diagonal:  Solving for T, Initial residual = 0, Final residual = 0, No Iterations 0
diagonal:  Solving for T, Initial residual = 0, Final residual = 0, No Iterations 0
diagonal:  Solving for T, Initial residual = 0, Final residual = 0, No Iterations 0
 T goes from min(T) [0 0 0 0 0 0 0] 7.83456e-21 to max(T) [0 0 0 0 0 0 0] 0.953617

ExecutionTime = 23.63 s  ClockTime = 418 s

Time = 0.165
Courant Number mean: 0.458232 max: 1.00214
diagonal:  Solving for T, Initial residual = 0, Final residual = 0, No Iterations 0
diagonal:  Solving for T, Initial residual = 0, Final residual = 0, No Iterations 0
diagonal:  Solving for T, Initial residual = 0, Final residual = 0, No Iterations 0
diagonal:  Solving for T, Initial residual = 0, Final residual = 0, No Iterations 0
 T goes from min(T) [0 0 0 0 0 0 0] 8.31494e-21 to max(T) [0 0 0 0 0 0 0] 0.953461

ExecutionTime = 24.13 s  ClockTime = 426 s

Time = 0.17
Courant Number mean: 0.457793 max: 1.00315
diagonal:  Solving for T, Initial residual = 0, Final residual = 0, No Iterations 0
diagonal:  Solving for T, Initial residual = 0, Final residual = 0, No Iterations 0
diagonal:  Solving for T, Initial residual = 0, Final residual = 0, No Iterations 0
diagonal:  Solving for T, Initial residual = 0, Final residual = 0, No Iterations 0
 T goes from min(T) [0 0 0 0 0 0 0] 8.05401e-21 to max(T) [0 0 0 0 0 0 0] 0.953593

ExecutionTime = 24.66 s  ClockTime = 435 s

Time = 0.175
Courant Number mean: 0.457342 max: 1.0041
diagonal:  Solving for T, Initial residual = 0, Final residual = 0, No Iterations 0
diagonal:  Solving for T, Initial residual = 0, Final residual = 0, No Iterations 0
diagonal:  Solving for T, Initial residual = 0, Final residual = 0, No Iterations 0
diagonal:  Solving for T, Initial residual = 0, Final residual = 0, No Iterations 0
 T goes from min(T) [0 0 0 0 0 0 0] 7.7197e-21 to max(T) [0 0 0 0 0 0 0] 0.953988

ExecutionTime = 25.15 s  ClockTime = 444 s

Time = 0.18
Courant Number mean: 0.456886 max: 1.00499
diagonal:  Solving for T, Initial residual = 0, Final residual = 0, No Iterations 0
diagonal:  Solving for T, Initial residual = 0, Final residual = 0, No Iterations 0
diagonal:  Solving for T, Initial residual = 0, Final residual = 0, No Iterations 0
diagonal:  Solving for T, Initial residual = 0, Final residual = 0, No Iterations 0
 T goes from min(T) [0 0 0 0 0 0 0] 7.7642e-21 to max(T) [0 0 0 0 0 0 0] 0.95409

ExecutionTime = 25.64 s  ClockTime = 452 s

Time = 0.185
Courant Number mean: 0.456421 max: 1.0058
diagonal:  Solving for T, Initial residual = 0, Final residual = 0, No Iterations 0
diagonal:  Solving for T, Initial residual = 0, Final residual = 0, No Iterations 0
diagonal:  Solving for T, Initial residual = 0, Final residual = 0, No Iterations 0
diagonal:  Solving for T, Initial residual = 0, Final residual = 0, No Iterations 0
 T goes from min(T) [0 0 0 0 0 0 0] 8.1877e-21 to max(T) [0 0 0 0 0 0 0] 0.953488

ExecutionTime = 26.14 s  ClockTime = 461 s

Time = 0.19
Courant Number mean: 0.455946 max: 1.00657
diagonal:  Solving for T, Initial residual = 0, Final residual = 0, No Iterations 0
diagonal:  Solving for T, Initial residual = 0, Final residual = 0, No Iterations 0
diagonal:  Solving for T, Initial residual = 0, Final residual = 0, No Iterations 0
diagonal:  Solving for T, Initial residual = 0, Final residual = 0, No Iterations 0
 T goes from min(T) [0 0 0 0 0 0 0] 8.09451e-21 to max(T) [0 0 0 0 0 0 0] 0.953484

ExecutionTime = 26.63 s  ClockTime = 469 s

Time = 0.195
Courant Number mean: 0.455459 max: 1.00757
diagonal:  Solving for T, Initial residual = 0, Final residual = 0, No Iterations 0
diagonal:  Solving for T, Initial residual = 0, Final residual = 0, No Iterations 0
diagonal:  Solving for T, Initial residual = 0, Final residual = 0, No Iterations 0
diagonal:  Solving for T, Initial residual = 0, Final residual = 0, No Iterations 0
 T goes from min(T) [0 0 0 0 0 0 0] 7.70937e-21 to max(T) [0 0 0 0 0 0 0] 0.953983

ExecutionTime = 27.12 s  ClockTime = 477 s

Time = 0.2
Courant Number mean: 0.454968 max: 1.0085
diagonal:  Solving for T, Initial residual = 0, Final residual = 0, No Iterations 0
diagonal:  Solving for T, Initial residual = 0, Final residual = 0, No Iterations 0
diagonal:  Solving for T, Initial residual = 0, Final residual = 0, No Iterations 0
diagonal:  Solving for T, Initial residual = 0, Final residual = 0, No Iterations 0
 T goes from min(T) [0 0 0 0 0 0 0] 7.70091e-21 to max(T) [0 0 0 0 0 0 0] 0.954136

ExecutionTime = 27.63 s  ClockTime = 486 s

Time = 0.205
Courant Number mean: 0.45447 max: 1.00937
diagonal:  Solving for T, Initial residual = 0, Final residual = 0, No Iterations 0
diagonal:  Solving for T, Initial residual = 0, Final residual = 0, No Iterations 0
diagonal:  Solving for T, Initial residual = 0, Final residual = 0, No Iterations 0
diagonal:  Solving for T, Initial residual = 0, Final residual = 0, No Iterations 0
 T goes from min(T) [0 0 0 0 0 0 0] 8.06906e-21 to max(T) [0 0 0 0 0 0 0] 0.953712

ExecutionTime = 28.12 s  ClockTime = 494 s

Time = 0.21
Courant Number mean: 0.453964 max: 1.01017
diagonal:  Solving for T, Initial residual = 0, Final residual = 0, No Iterations 0
diagonal:  Solving for T, Initial residual = 0, Final residual = 0, No Iterations 0
diagonal:  Solving for T, Initial residual = 0, Final residual = 0, No Iterations 0
diagonal:  Solving for T, Initial residual = 0, Final residual = 0, No Iterations 0
 T goes from min(T) [0 0 0 0 0 0 0] 8.14108e-21 to max(T) [0 0 0 0 0 0 0] 0.953703

ExecutionTime = 28.61 s  ClockTime = 503 s

Time = 0.215
Courant Number mean: 0.453448 max: 1.0109
diagonal:  Solving for T, Initial residual = 0, Final residual = 0, No Iterations 0
diagonal:  Solving for T, Initial residual = 0, Final residual = 0, No Iterations 0
diagonal:  Solving for T, Initial residual = 0, Final residual = 0, No Iterations 0
diagonal:  Solving for T, Initial residual = 0, Final residual = 0, No Iterations 0
 T goes from min(T) [0 0 0 0 0 0 0] 7.70586e-21 to max(T) [0 0 0 0 0 0 0] 0.953347

ExecutionTime = 29.09 s  ClockTime = 511 s

Time = 0.22
Courant Number mean: 0.452924 max: 1.01156
diagonal:  Solving for T, Initial residual = 0, Final residual = 0, No Iterations 0
diagonal:  Solving for T, Initial residual = 0, Final residual = 0, No Iterations 0
diagonal:  Solving for T, Initial residual = 0, Final residual = 0, No Iterations 0
diagonal:  Solving for T, Initial residual = 0, Final residual = 0, No Iterations 0
 T goes from min(T) [0 0 0 0 0 0 0] 7.64556e-21 to max(T) [0 0 0 0 0 0 0] 0.953353

ExecutionTime = 29.6 s  ClockTime = 519 s

Time = 0.225
Courant Number mean: 0.452397 max: 1.01244
diagonal:  Solving for T, Initial residual = 0, Final residual = 0, No Iterations 0
diagonal:  Solving for T, Initial residual = 0, Final residual = 0, No Iterations 0
diagonal:  Solving for T, Initial residual = 0, Final residual = 0, No Iterations 0
diagonal:  Solving for T, Initial residual = 0, Final residual = 0, No Iterations 0
 T goes from min(T) [0 0 0 0 0 0 0] 7.95973e-21 to max(T) [0 0 0 0 0 0 0] 0.954044

ExecutionTime = 30.12 s  ClockTime = 528 s

Time = 0.23
Courant Number mean: 0.451863 max: 1.01329
diagonal:  Solving for T, Initial residual = 0, Final residual = 0, No Iterations 0
diagonal:  Solving for T, Initial residual = 0, Final residual = 0, No Iterations 0
diagonal:  Solving for T, Initial residual = 0, Final residual = 0, No Iterations 0
diagonal:  Solving for T, Initial residual = 0, Final residual = 0, No Iterations 0
 T goes from min(T) [0 0 0 0 0 0 0] 8.19454e-21 to max(T) [0 0 0 0 0 0 0] 0.954271

ExecutionTime = 30.63 s  ClockTime = 537 s

Time = 0.235
Courant Number mean: 0.451319 max: 1.01407
diagonal:  Solving for T, Initial residual = 0, Final residual = 0, No Iterations 0
diagonal:  Solving for T, Initial residual = 0, Final residual = 0, No Iterations 0
diagonal:  Solving for T, Initial residual = 0, Final residual = 0, No Iterations 0
diagonal:  Solving for T, Initial residual = 0, Final residual = 0, No Iterations 0
 T goes from min(T) [0 0 0 0 0 0 0] 7.70996e-21 to max(T) [0 0 0 0 0 0 0] 0.95387

ExecutionTime = 31.12 s  ClockTime = 545 s

Time = 0.24
Courant Number mean: 0.450767 max: 1.01478
diagonal:  Solving for T, Initial residual = 0, Final residual = 0, No Iterations 0
diagonal:  Solving for T, Initial residual = 0, Final residual = 0, No Iterations 0
diagonal:  Solving for T, Initial residual = 0, Final residual = 0, No Iterations 0
diagonal:  Solving for T, Initial residual = 0, Final residual = 0, No Iterations 0
 T goes from min(T) [0 0 0 0 0 0 0] 7.59887e-21 to max(T) [0 0 0 0 0 0 0] 0.953456

ExecutionTime = 31.6 s  ClockTime = 553 s

Time = 0.245
Courant Number mean: 0.450212 max: 1.01547
diagonal:  Solving for T, Initial residual = 0, Final residual = 0, No Iterations 0
diagonal:  Solving for T, Initial residual = 0, Final residual = 0, No Iterations 0
diagonal:  Solving for T, Initial residual = 0, Final residual = 0, No Iterations 0
diagonal:  Solving for T, Initial residual = 0, Final residual = 0, No Iterations 0
 T goes from min(T) [0 0 0 0 0 0 0] 7.86035e-21 to max(T) [0 0 0 0 0 0 0] 0.953444

ExecutionTime = 32.09 s  ClockTime = 562 s

Time = 0.25
Courant Number mean: 0.449651 max: 1.01624
diagonal:  Solving for T, Initial residual = 0, Final residual = 0, No Iterations 0
diagonal:  Solving for T, Initial residual = 0, Final residual = 0, No Iterations 0
diagonal:  Solving for T, Initial residual = 0, Final residual = 0, No Iterations 0
diagonal:  Solving for T, Initial residual = 0, Final residual = 0, No Iterations 0
 T goes from min(T) [0 0 0 0 0 0 0] 8.25568e-21 to max(T) [0 0 0 0 0 0 0] 0.953488

ExecutionTime = 32.58 s  ClockTime = 570 s

Time = 0.255
Courant Number mean: 0.449082 max: 1.01695
diagonal:  Solving for T, Initial residual = 0, Final residual = 0, No Iterations 0
diagonal:  Solving for T, Initial residual = 0, Final residual = 0, No Iterations 0
diagonal:  Solving for T, Initial residual = 0, Final residual = 0, No Iterations 0
diagonal:  Solving for T, Initial residual = 0, Final residual = 0, No Iterations 0
 T goes from min(T) [0 0 0 0 0 0 0] 7.72246e-21 to max(T) [0 0 0 0 0 0 0] 0.953897

ExecutionTime = 33.09 s  ClockTime = 579 s

Time = 0.26
Courant Number mean: 0.448503 max: 1.01759
diagonal:  Solving for T, Initial residual = 0, Final residual = 0, No Iterations 0
diagonal:  Solving for T, Initial residual = 0, Final residual = 0, No Iterations 0
diagonal:  Solving for T, Initial residual = 0, Final residual = 0, No Iterations 0
diagonal:  Solving for T, Initial residual = 0, Final residual = 0, No Iterations 0
 T goes from min(T) [0 0 0 0 0 0 0] 7.5616e-21 to max(T) [0 0 0 0 0 0 0] 0.954305

ExecutionTime = 33.58 s  ClockTime = 587 s

Time = 0.265
Courant Number mean: 0.447921 max: 1.01819
diagonal:  Solving for T, Initial residual = 0, Final residual = 0, No Iterations 0
diagonal:  Solving for T, Initial residual = 0, Final residual = 0, No Iterations 0
diagonal:  Solving for T, Initial residual = 0, Final residual = 0, No Iterations 0
diagonal:  Solving for T, Initial residual = 0, Final residual = 0, No Iterations 0
 T goes from min(T) [0 0 0 0 0 0 0] 7.77168e-21 to max(T) [0 0 0 0 0 0 0] 0.954119

ExecutionTime = 34.07 s  ClockTime = 595 s

Time = 0.27
Courant Number mean: 0.447336 max: 1.01894
diagonal:  Solving for T, Initial residual = 0, Final residual = 0, No Iterations 0
diagonal:  Solving for T, Initial residual = 0, Final residual = 0, No Iterations 0
diagonal:  Solving for T, Initial residual = 0, Final residual = 0, No Iterations 0
diagonal:  Solving for T, Initial residual = 0, Final residual = 0, No Iterations 0
 T goes from min(T) [0 0 0 0 0 0 0] 8.3251e-21 to max(T) [0 0 0 0 0 0 0] 0.953736

ExecutionTime = 34.57 s  ClockTime = 604 s

Time = 0.275
Courant Number mean: 0.446743 max: 1.0197
diagonal:  Solving for T, Initial residual = 0, Final residual = 0, No Iterations 0
diagonal:  Solving for T, Initial residual = 0, Final residual = 0, No Iterations 0
diagonal:  Solving for T, Initial residual = 0, Final residual = 0, No Iterations 0
diagonal:  Solving for T, Initial residual = 0, Final residual = 0, No Iterations 0
 T goes from min(T) [0 0 0 0 0 0 0] 7.744e-21 to max(T) [0 0 0 0 0 0 0] 0.953545

ExecutionTime = 35.04 s  ClockTime = 612 s

Time = 0.28
Courant Number mean: 0.446143 max: 1.02039
diagonal:  Solving for T, Initial residual = 0, Final residual = 0, No Iterations 0
diagonal:  Solving for T, Initial residual = 0, Final residual = 0, No Iterations 0
diagonal:  Solving for T, Initial residual = 0, Final residual = 0, No Iterations 0
diagonal:  Solving for T, Initial residual = 0, Final residual = 0, No Iterations 0
 T goes from min(T) [0 0 0 0 0 0 0] 7.53439e-21 to max(T) [0 0 0 0 0 0 0] 0.953315

ExecutionTime = 35.54 s  ClockTime = 620 s

Time = 0.285
Courant Number mean: 0.445536 max: 1.02101
diagonal:  Solving for T, Initial residual = 0, Final residual = 0, No Iterations 0
diagonal:  Solving for T, Initial residual = 0, Final residual = 0, No Iterations 0
diagonal:  Solving for T, Initial residual = 0, Final residual = 0, No Iterations 0
diagonal:  Solving for T, Initial residual = 0, Final residual = 0, No Iterations 0
 T goes from min(T) [0 0 0 0 0 0 0] 7.6943e-21 to max(T) [0 0 0 0 0 0 0] 0.953156

ExecutionTime = 36.03 s  ClockTime = 629 s

Time = 0.29
Courant Number mean: 0.444928 max: 1.02156
diagonal:  Solving for T, Initial residual = 0, Final residual = 0, No Iterations 0
diagonal:  Solving for T, Initial residual = 0, Final residual = 0, No Iterations 0
diagonal:  Solving for T, Initial residual = 0, Final residual = 0, No Iterations 0
diagonal:  Solving for T, Initial residual = 0, Final residual = 0, No Iterations 0
 T goes from min(T) [0 0 0 0 0 0 0] 8.22805e-21 to max(T) [0 0 0 0 0 0 0] 0.953911

ExecutionTime = 36.52 s  ClockTime = 637 s

Time = 0.295
Courant Number mean: 0.444314 max: 1.02205
diagonal:  Solving for T, Initial residual = 0, Final residual = 0, No Iterations 0
diagonal:  Solving for T, Initial residual = 0, Final residual = 0, No Iterations 0
diagonal:  Solving for T, Initial residual = 0, Final residual = 0, No Iterations 0
diagonal:  Solving for T, Initial residual = 0, Final residual = 0, No Iterations 0
 T goes from min(T) [0 0 0 0 0 0 0] 7.77511e-21 to max(T) [0 0 0 0 0 0 0] 0.9541

ExecutionTime = 37 s  ClockTime = 645 s

Time = 0.3
Courant Number mean: 0.443691 max: 1.02268
diagonal:  Solving for T, Initial residual = 0, Final residual = 0, No Iterations 0
diagonal:  Solving for T, Initial residual = 0, Final residual = 0, No Iterations 0
diagonal:  Solving for T, Initial residual = 0, Final residual = 0, No Iterations 0
diagonal:  Solving for T, Initial residual = 0, Final residual = 0, No Iterations 0
 T goes from min(T) [0 0 0 0 0 0 0] 7.51778e-21 to max(T) [0 0 0 0 0 0 0] 0.95408

ExecutionTime = 37.57 s  ClockTime = 655 s

Time = 0.305
Courant Number mean: 0.443063 max: 1.02334
diagonal:  Solving for T, Initial residual = 0, Final residual = 0, No Iterations 0
diagonal:  Solving for T, Initial residual = 0, Final residual = 0, No Iterations 0
diagonal:  Solving for T, Initial residual = 0, Final residual = 0, No Iterations 0
diagonal:  Solving for T, Initial residual = 0, Final residual = 0, No Iterations 0
 T goes from min(T) [0 0 0 0 0 0 0] 7.62879e-21 to max(T) [0 0 0 0 0 0 0] 0.954324

ExecutionTime = 38.07 s  ClockTime = 663 s

Time = 0.31
Courant Number mean: 0.442432 max: 1.02394
diagonal:  Solving for T, Initial residual = 0, Final residual = 0, No Iterations 0
diagonal:  Solving for T, Initial residual = 0, Final residual = 0, No Iterations 0
diagonal:  Solving for T, Initial residual = 0, Final residual = 0, No Iterations 0
diagonal:  Solving for T, Initial residual = 0, Final residual = 0, No Iterations 0
 T goes from min(T) [0 0 0 0 0 0 0] 8.112e-21 to max(T) [0 0 0 0 0 0 0] 0.954035

ExecutionTime = 38.56 s  ClockTime = 672 s

Time = 0.315
Courant Number mean: 0.441797 max: 1.02447
diagonal:  Solving for T, Initial residual = 0, Final residual = 0, No Iterations 0
diagonal:  Solving for T, Initial residual = 0, Final residual = 0, No Iterations 0
diagonal:  Solving for T, Initial residual = 0, Final residual = 0, No Iterations 0
diagonal:  Solving for T, Initial residual = 0, Final residual = 0, No Iterations 0
 T goes from min(T) [0 0 0 0 0 0 0] 7.81624e-21 to max(T) [0 0 0 0 0 0 0] 0.953749

ExecutionTime = 39.06 s  ClockTime = 680 s

Time = 0.32
Courant Number mean: 0.441155 max: 1.02494
diagonal:  Solving for T, Initial residual = 0, Final residual = 0, No Iterations 0
diagonal:  Solving for T, Initial residual = 0, Final residual = 0, No Iterations 0
diagonal:  Solving for T, Initial residual = 0, Final residual = 0, No Iterations 0
diagonal:  Solving for T, Initial residual = 0, Final residual = 0, No Iterations 0
 T goes from min(T) [0 0 0 0 0 0 0] 7.51223e-21 to max(T) [0 0 0 0 0 0 0] 0.953522

ExecutionTime = 39.55 s  ClockTime = 689 s

Time = 0.325
Courant Number mean: 0.440506 max: 1.02535
diagonal:  Solving for T, Initial residual = 0, Final residual = 0, No Iterations 0
diagonal:  Solving for T, Initial residual = 0, Final residual = 0, No Iterations 0
diagonal:  Solving for T, Initial residual = 0, Final residual = 0, No Iterations 0
diagonal:  Solving for T, Initial residual = 0, Final residual = 0, No Iterations 0
 T goes from min(T) [0 0 0 0 0 0 0] 7.57561e-21 to max(T) [0 0 0 0 0 0 0] 0.953097

ExecutionTime = 40.09 s  ClockTime = 698 s

Time = 0.33
Courant Number mean: 0.439853 max: 1.02588
diagonal:  Solving for T, Initial residual = 0, Final residual = 0, No Iterations 0
diagonal:  Solving for T, Initial residual = 0, Final residual = 0, No Iterations 0
diagonal:  Solving for T, Initial residual = 0, Final residual = 0, No Iterations 0
diagonal:  Solving for T, Initial residual = 0, Final residual = 0, No Iterations 0
 T goes from min(T) [0 0 0 0 0 0 0] 8.00976e-21 to max(T) [0 0 0 0 0 0 0] 0.953786

ExecutionTime = 40.6 s  ClockTime = 706 s

Time = 0.335
Courant Number mean: 0.439198 max: 1.02639
diagonal:  Solving for T, Initial residual = 0, Final residual = 0, No Iterations 0
diagonal:  Solving for T, Initial residual = 0, Final residual = 0, No Iterations 0
diagonal:  Solving for T, Initial residual = 0, Final residual = 0, No Iterations 0
diagonal:  Solving for T, Initial residual = 0, Final residual = 0, No Iterations 0
 T goes from min(T) [0 0 0 0 0 0 0] 7.86775e-21 to max(T) [0 0 0 0 0 0 0] 0.952968

ExecutionTime = 41.1 s  ClockTime = 715 s

Time = 0.34
Courant Number mean: 0.438538 max: 1.0269
diagonal:  Solving for T, Initial residual = 0, Final residual = 0, No Iterations 0
diagonal:  Solving for T, Initial residual = 0, Final residual = 0, No Iterations 0
diagonal:  Solving for T, Initial residual = 0, Final residual = 0, No Iterations 0
diagonal:  Solving for T, Initial residual = 0, Final residual = 0, No Iterations 0
 T goes from min(T) [0 0 0 0 0 0 0] 7.51811e-21 to max(T) [0 0 0 0 0 0 0] 0.953344

ExecutionTime = 41.59 s  ClockTime = 723 s

Time = 0.345
Courant Number mean: 0.43787 max: 1.02734
diagonal:  Solving for T, Initial residual = 0, Final residual = 0, No Iterations 0
diagonal:  Solving for T, Initial residual = 0, Final residual = 0, No Iterations 0
diagonal:  Solving for T, Initial residual = 0, Final residual = 0, No Iterations 0
diagonal:  Solving for T, Initial residual = 0, Final residual = 0, No Iterations 0
 T goes from min(T) [0 0 0 0 0 0 0] 7.53516e-21 to max(T) [0 0 0 0 0 0 0] 0.953309

ExecutionTime = 42.09 s  ClockTime = 732 s

Time = 0.35
Courant Number mean: 0.437198 max: 1.02781
diagonal:  Solving for T, Initial residual = 0, Final residual = 0, No Iterations 0
diagonal:  Solving for T, Initial residual = 0, Final residual = 0, No Iterations 0
diagonal:  Solving for T, Initial residual = 0, Final residual = 0, No Iterations 0
diagonal:  Solving for T, Initial residual = 0, Final residual = 0, No Iterations 0
 T goes from min(T) [0 0 0 0 0 0 0] 7.92175e-21 to max(T) [0 0 0 0 0 0 0] 0.953894

ExecutionTime = 42.58 s  ClockTime = 740 s

Time = 0.355
Courant Number mean: 0.436525 max: 1.02831
diagonal:  Solving for T, Initial residual = 0, Final residual = 0, No Iterations 0
diagonal:  Solving for T, Initial residual = 0, Final residual = 0, No Iterations 0
diagonal:  Solving for T, Initial residual = 0, Final residual = 0, No Iterations 0
diagonal:  Solving for T, Initial residual = 0, Final residual = 0, No Iterations 0
 T goes from min(T) [0 0 0 0 0 0 0] 7.92991e-21 to max(T) [0 0 0 0 0 0 0] 0.953984

ExecutionTime = 43.06 s  ClockTime = 747 s

Time = 0.36
Courant Number mean: 0.435847 max: 1.02876
diagonal:  Solving for T, Initial residual = 0, Final residual = 0, No Iterations 0
diagonal:  Solving for T, Initial residual = 0, Final residual = 0, No Iterations 0
diagonal:  Solving for T, Initial residual = 0, Final residual = 0, No Iterations 0
diagonal:  Solving for T, Initial residual = 0, Final residual = 0, No Iterations 0
 T goes from min(T) [0 0 0 0 0 0 0] 7.53572e-21 to max(T) [0 0 0 0 0 0 0] 0.953995

ExecutionTime = 43.55 s  ClockTime = 755 s

Time = 0.365
Courant Number mean: 0.435164 max: 1.02913
diagonal:  Solving for T, Initial residual = 0, Final residual = 0, No Iterations 0
diagonal:  Solving for T, Initial residual = 0, Final residual = 0, No Iterations 0
diagonal:  Solving for T, Initial residual = 0, Final residual = 0, No Iterations 0
diagonal:  Solving for T, Initial residual = 0, Final residual = 0, No Iterations 0
 T goes from min(T) [0 0 0 0 0 0 0] 7.50773e-21 to max(T) [0 0 0 0 0 0 0] 0.954285

ExecutionTime = 44.03 s  ClockTime = 763 s

Time = 0.37
Courant Number mean: 0.434473 max: 1.02943
diagonal:  Solving for T, Initial residual = 0, Final residual = 0, No Iterations 0
diagonal:  Solving for T, Initial residual = 0, Final residual = 0, No Iterations 0
diagonal:  Solving for T, Initial residual = 0, Final residual = 0, No Iterations 0
diagonal:  Solving for T, Initial residual = 0, Final residual = 0, No Iterations 0
 T goes from min(T) [0 0 0 0 0 0 0] 7.84828e-21 to max(T) [0 0 0 0 0 0 0] 0.954107

ExecutionTime = 44.52 s  ClockTime = 771 s

Time = 0.375
Courant Number mean: 0.433782 max: 1.02977
diagonal:  Solving for T, Initial residual = 0, Final residual = 0, No Iterations 0
diagonal:  Solving for T, Initial residual = 0, Final residual = 0, No Iterations 0
diagonal:  Solving for T, Initial residual = 0, Final residual = 0, No Iterations 0
diagonal:  Solving for T, Initial residual = 0, Final residual = 0, No Iterations 0
 T goes from min(T) [0 0 0 0 0 0 0] 8.00293e-21 to max(T) [0 0 0 0 0 0 0] 0.954282

ExecutionTime = 45 s  ClockTime = 778 s

Time = 0.38
Courant Number mean: 0.433088 max: 1.03026
diagonal:  Solving for T, Initial residual = 0, Final residual = 0, No Iterations 0
diagonal:  Solving for T, Initial residual = 0, Final residual = 0, No Iterations 0
diagonal:  Solving for T, Initial residual = 0, Final residual = 0, No Iterations 0
diagonal:  Solving for T, Initial residual = 0, Final residual = 0, No Iterations 0
 T goes from min(T) [0 0 0 0 0 0 0] 7.56525e-21 to max(T) [0 0 0 0 0 0 0] 0.954337

ExecutionTime = 45.5 s  ClockTime = 786 s

Time = 0.385
Courant Number mean: 0.432388 max: 1.03067
diagonal:  Solving for T, Initial residual = 0, Final residual = 0, No Iterations 0
diagonal:  Solving for T, Initial residual = 0, Final residual = 0, No Iterations 0
diagonal:  Solving for T, Initial residual = 0, Final residual = 0, No Iterations 0
diagonal:  Solving for T, Initial residual = 0, Final residual = 0, No Iterations 0
 T goes from min(T) [0 0 0 0 0 0 0] 7.49353e-21 to max(T) [0 0 0 0 0 0 0] 0.954027

ExecutionTime = 46.03 s  ClockTime = 793 s

Time = 0.39
Courant Number mean: 0.431682 max: 1.03102
diagonal:  Solving for T, Initial residual = 0, Final residual = 0, No Iterations 0
diagonal:  Solving for T, Initial residual = 0, Final residual = 0, No Iterations 0
diagonal:  Solving for T, Initial residual = 0, Final residual = 0, No Iterations 0
diagonal:  Solving for T, Initial residual = 0, Final residual = 0, No Iterations 0
 T goes from min(T) [0 0 0 0 0 0 0] 7.78954e-21 to max(T) [0 0 0 0 0 0 0] 0.95436

ExecutionTime = 46.51 s  ClockTime = 801 s

Time = 0.395
Courant Number mean: 0.430974 max: 1.0313
diagonal:  Solving for T, Initial residual = 0, Final residual = 0, No Iterations 0
diagonal:  Solving for T, Initial residual = 0, Final residual = 0, No Iterations 0
diagonal:  Solving for T, Initial residual = 0, Final residual = 0, No Iterations 0
diagonal:  Solving for T, Initial residual = 0, Final residual = 0, No Iterations 0
 T goes from min(T) [0 0 0 0 0 0 0] 8.08694e-21 to max(T) [0 0 0 0 0 0 0] 0.954241

ExecutionTime = 47.04 s  ClockTime = 809 s

Time = 0.4
Courant Number mean: 0.430263 max: 1.03151
diagonal:  Solving for T, Initial residual = 0, Final residual = 0, No Iterations 0
diagonal:  Solving for T, Initial residual = 0, Final residual = 0, No Iterations 0
diagonal:  Solving for T, Initial residual = 0, Final residual = 0, No Iterations 0
diagonal:  Solving for T, Initial residual = 0, Final residual = 0, No Iterations 0
 T goes from min(T) [0 0 0 0 0 0 0] 7.60682e-21 to max(T) [0 0 0 0 0 0 0] 0.954144

ExecutionTime = 47.53 s  ClockTime = 816 s

Time = 0.405
Courant Number mean: 0.42955 max: 1.0317
diagonal:  Solving for T, Initial residual = 0, Final residual = 0, No Iterations 0
diagonal:  Solving for T, Initial residual = 0, Final residual = 0, No Iterations 0
diagonal:  Solving for T, Initial residual = 0, Final residual = 0, No Iterations 0
diagonal:  Solving for T, Initial residual = 0, Final residual = 0, No Iterations 0
 T goes from min(T) [0 0 0 0 0 0 0] 7.49263e-21 to max(T) [0 0 0 0 0 0 0] 0.954353

ExecutionTime = 48.03 s  ClockTime = 824 s

Time = 0.41
Courant Number mean: 0.428831 max: 1.03209
diagonal:  Solving for T, Initial residual = 0, Final residual = 0, No Iterations 0
diagonal:  Solving for T, Initial residual = 0, Final residual = 0, No Iterations 0
diagonal:  Solving for T, Initial residual = 0, Final residual = 0, No Iterations 0
diagonal:  Solving for T, Initial residual = 0, Final residual = 0, No Iterations 0
 T goes from min(T) [0 0 0 0 0 0 0] 7.7456e-21 to max(T) [0 0 0 0 0 0 0] 0.954129

ExecutionTime = 48.54 s  ClockTime = 831 s

Time = 0.415
Courant Number mean: 0.428105 max: 1.03241
diagonal:  Solving for T, Initial residual = 0, Final residual = 0, No Iterations 0
diagonal:  Solving for T, Initial residual = 0, Final residual = 0, No Iterations 0
diagonal:  Solving for T, Initial residual = 0, Final residual = 0, No Iterations 0
diagonal:  Solving for T, Initial residual = 0, Final residual = 0, No Iterations 0
 T goes from min(T) [0 0 0 0 0 0 0] 8.18195e-21 to max(T) [0 0 0 0 0 0 0] 0.954136

ExecutionTime = 49.03 s  ClockTime = 839 s

Time = 0.42
Courant Number mean: 0.42738 max: 1.03267
diagonal:  Solving for T, Initial residual = 0, Final residual = 0, No Iterations 0
diagonal:  Solving for T, Initial residual = 0, Final residual = 0, No Iterations 0
diagonal:  Solving for T, Initial residual = 0, Final residual = 0, No Iterations 0
diagonal:  Solving for T, Initial residual = 0, Final residual = 0, No Iterations 0
 T goes from min(T) [0 0 0 0 0 0 0] 7.66039e-21 to max(T) [0 0 0 0 0 0 0] 0.954296

ExecutionTime = 49.54 s  ClockTime = 846 s

Time = 0.425
Courant Number mean: 0.426652 max: 1.03286
diagonal:  Solving for T, Initial residual = 0, Final residual = 0, No Iterations 0
diagonal:  Solving for T, Initial residual = 0, Final residual = 0, No Iterations 0
diagonal:  Solving for T, Initial residual = 0, Final residual = 0, No Iterations 0
diagonal:  Solving for T, Initial residual = 0, Final residual = 0, No Iterations 0
 T goes from min(T) [0 0 0 0 0 0 0] 7.50501e-21 to max(T) [0 0 0 0 0 0 0] 0.954037

ExecutionTime = 50.06 s  ClockTime = 854 s

Time = 0.43
Courant Number mean: 0.425918 max: 1.03301
diagonal:  Solving for T, Initial residual = 0, Final residual = 0, No Iterations 0
diagonal:  Solving for T, Initial residual = 0, Final residual = 0, No Iterations 0
diagonal:  Solving for T, Initial residual = 0, Final residual = 0, No Iterations 0
diagonal:  Solving for T, Initial residual = 0, Final residual = 0, No Iterations 0
 T goes from min(T) [0 0 0 0 0 0 0] 7.71648e-21 to max(T) [0 0 0 0 0 0 0] 0.953897

ExecutionTime = 50.55 s  ClockTime = 861 s

Time = 0.435
Courant Number mean: 0.425179 max: 1.03327
diagonal:  Solving for T, Initial residual = 0, Final residual = 0, No Iterations 0
diagonal:  Solving for T, Initial residual = 0, Final residual = 0, No Iterations 0
diagonal:  Solving for T, Initial residual = 0, Final residual = 0, No Iterations 0
diagonal:  Solving for T, Initial residual = 0, Final residual = 0, No Iterations 0
 T goes from min(T) [0 0 0 0 0 0 0] 8.28785e-21 to max(T) [0 0 0 0 0 0 0] 0.954088

ExecutionTime = 51.06 s  ClockTime = 869 s

Time = 0.44
Courant Number mean: 0.424439 max: 1.03346
diagonal:  Solving for T, Initial residual = 0, Final residual = 0, No Iterations 0
diagonal:  Solving for T, Initial residual = 0, Final residual = 0, No Iterations 0
diagonal:  Solving for T, Initial residual = 0, Final residual = 0, No Iterations 0
diagonal:  Solving for T, Initial residual = 0, Final residual = 0, No Iterations 0
 T goes from min(T) [0 0 0 0 0 0 0] 7.72588e-21 to max(T) [0 0 0 0 0 0 0] 0.953872

ExecutionTime = 51.58 s  ClockTime = 877 s

Time = 0.445
Courant Number mean: 0.423696 max: 1.03359
diagonal:  Solving for T, Initial residual = 0, Final residual = 0, No Iterations 0
diagonal:  Solving for T, Initial residual = 0, Final residual = 0, No Iterations 0
diagonal:  Solving for T, Initial residual = 0, Final residual = 0, No Iterations 0
diagonal:  Solving for T, Initial residual = 0, Final residual = 0, No Iterations 0
 T goes from min(T) [0 0 0 0 0 0 0] 7.53062e-21 to max(T) [0 0 0 0 0 0 0] 0.953271

ExecutionTime = 52.08 s  ClockTime = 884 s

Time = 0.45
Courant Number mean: 0.422951 max: 1.03369
diagonal:  Solving for T, Initial residual = 0, Final residual = 0, No Iterations 0
diagonal:  Solving for T, Initial residual = 0, Final residual = 0, No Iterations 0
diagonal:  Solving for T, Initial residual = 0, Final residual = 0, No Iterations 0
diagonal:  Solving for T, Initial residual = 0, Final residual = 0, No Iterations 0
 T goes from min(T) [0 0 0 0 0 0 0] 7.7023e-21 to max(T) [0 0 0 0 0 0 0] 0.953446

ExecutionTime = 52.59 s  ClockTime = 892 s

Time = 0.455
Courant Number mean: 0.422199 max: 1.0339
diagonal:  Solving for T, Initial residual = 0, Final residual = 0, No Iterations 0
diagonal:  Solving for T, Initial residual = 0, Final residual = 0, No Iterations 0
diagonal:  Solving for T, Initial residual = 0, Final residual = 0, No Iterations 0
diagonal:  Solving for T, Initial residual = 0, Final residual = 0, No Iterations 0
 T goes from min(T) [0 0 0 0 0 0 0] 8.24841e-21 to max(T) [0 0 0 0 0 0 0] 0.953353

ExecutionTime = 53.08 s  ClockTime = 899 s

Time = 0.46
Courant Number mean: 0.421445 max: 1.03413
diagonal:  Solving for T, Initial residual = 0, Final residual = 0, No Iterations 0
diagonal:  Solving for T, Initial residual = 0, Final residual = 0, No Iterations 0
diagonal:  Solving for T, Initial residual = 0, Final residual = 0, No Iterations 0
diagonal:  Solving for T, Initial residual = 0, Final residual = 0, No Iterations 0
 T goes from min(T) [0 0 0 0 0 0 0] 7.80323e-21 to max(T) [0 0 0 0 0 0 0] 0.953091

ExecutionTime = 53.58 s  ClockTime = 907 s

Time = 0.465
Courant Number mean: 0.420692 max: 1.0343
diagonal:  Solving for T, Initial residual = 0, Final residual = 0, No Iterations 0
diagonal:  Solving for T, Initial residual = 0, Final residual = 0, No Iterations 0
diagonal:  Solving for T, Initial residual = 0, Final residual = 0, No Iterations 0
diagonal:  Solving for T, Initial residual = 0, Final residual = 0, No Iterations 0
 T goes from min(T) [0 0 0 0 0 0 0] 7.5696e-21 to max(T) [0 0 0 0 0 0 0] 0.952844

ExecutionTime = 54.07 s  ClockTime = 914 s

Time = 0.47
Courant Number mean: 0.419934 max: 1.0344
diagonal:  Solving for T, Initial residual = 0, Final residual = 0, No Iterations 0
diagonal:  Solving for T, Initial residual = 0, Final residual = 0, No Iterations 0
diagonal:  Solving for T, Initial residual = 0, Final residual = 0, No Iterations 0
diagonal:  Solving for T, Initial residual = 0, Final residual = 0, No Iterations 0
 T goes from min(T) [0 0 0 0 0 0 0] 7.7034e-21 to max(T) [0 0 0 0 0 0 0] 0.953085

ExecutionTime = 54.57 s  ClockTime = 922 s

Time = 0.475
Courant Number mean: 0.419171 max: 1.03443
diagonal:  Solving for T, Initial residual = 0, Final residual = 0, No Iterations 0
diagonal:  Solving for T, Initial residual = 0, Final residual = 0, No Iterations 0
diagonal:  Solving for T, Initial residual = 0, Final residual = 0, No Iterations 0
diagonal:  Solving for T, Initial residual = 0, Final residual = 0, No Iterations 0
 T goes from min(T) [0 0 0 0 0 0 0] 8.21177e-21 to max(T) [0 0 0 0 0 0 0] 0.953644

ExecutionTime = 55.09 s  ClockTime = 929 s

Time = 0.48
Courant Number mean: 0.418405 max: 1.03439
diagonal:  Solving for T, Initial residual = 0, Final residual = 0, No Iterations 0
diagonal:  Solving for T, Initial residual = 0, Final residual = 0, No Iterations 0
diagonal:  Solving for T, Initial residual = 0, Final residual = 0, No Iterations 0
diagonal:  Solving for T, Initial residual = 0, Final residual = 0, No Iterations 0
 T goes from min(T) [0 0 0 0 0 0 0] 7.89263e-21 to max(T) [0 0 0 0 0 0 0] 0.953785

ExecutionTime = 55.61 s  ClockTime = 937 s

Time = 0.485
Courant Number mean: 0.417638 max: 1.03448
diagonal:  Solving for T, Initial residual = 0, Final residual = 0, No Iterations 0
diagonal:  Solving for T, Initial residual = 0, Final residual = 0, No Iterations 0
diagonal:  Solving for T, Initial residual = 0, Final residual = 0, No Iterations 0
diagonal:  Solving for T, Initial residual = 0, Final residual = 0, No Iterations 0
 T goes from min(T) [0 0 0 0 0 0 0] 7.62236e-21 to max(T) [0 0 0 0 0 0 0] 0.953534

ExecutionTime = 56.11 s  ClockTime = 945 s

Time = 0.49
Courant Number mean: 0.416869 max: 1.03462
diagonal:  Solving for T, Initial residual = 0, Final residual = 0, No Iterations 0
diagonal:  Solving for T, Initial residual = 0, Final residual = 0, No Iterations 0
diagonal:  Solving for T, Initial residual = 0, Final residual = 0, No Iterations 0
diagonal:  Solving for T, Initial residual = 0, Final residual = 0, No Iterations 0
 T goes from min(T) [0 0 0 0 0 0 0] 7.72042e-21 to max(T) [0 0 0 0 0 0 0] 0.952916

ExecutionTime = 56.6 s  ClockTime = 952 s

Time = 0.495
Courant Number mean: 0.416096 max: 1.0347
diagonal:  Solving for T, Initial residual = 0, Final residual = 0, No Iterations 0
diagonal:  Solving for T, Initial residual = 0, Final residual = 0, No Iterations 0
diagonal:  Solving for T, Initial residual = 0, Final residual = 0, No Iterations 0
diagonal:  Solving for T, Initial residual = 0, Final residual = 0, No Iterations 0
 T goes from min(T) [0 0 0 0 0 0 0] 8.19344e-21 to max(T) [0 0 0 0 0 0 0] 0.953364

ExecutionTime = 57.09 s  ClockTime = 960 s

Time = 0.5
Courant Number mean: 0.415318 max: 1.0347
diagonal:  Solving for T, Initial residual = 0, Final residual = 0, No Iterations 0
diagonal:  Solving for T, Initial residual = 0, Final residual = 0, No Iterations 0
diagonal:  Solving for T, Initial residual = 0, Final residual = 0, No Iterations 0
diagonal:  Solving for T, Initial residual = 0, Final residual = 0, No Iterations 0
 T goes from min(T) [0 0 0 0 0 0 0] 7.99461e-21 to max(T) [0 0 0 0 0 0 0] 0.953576

ExecutionTime = 57.59 s  ClockTime = 967 s

Time = 0.505
Courant Number mean: 0.41454 max: 1.03464
diagonal:  Solving for T, Initial residual = 0, Final residual = 0, No Iterations 0
diagonal:  Solving for T, Initial residual = 0, Final residual = 0, No Iterations 0
diagonal:  Solving for T, Initial residual = 0, Final residual = 0, No Iterations 0
diagonal:  Solving for T, Initial residual = 0, Final residual = 0, No Iterations 0
 T goes from min(T) [0 0 0 0 0 0 0] 7.68961e-21 to max(T) [0 0 0 0 0 0 0] 0.953414

ExecutionTime = 58.08 s  ClockTime = 974 s

Time = 0.51
Courant Number mean: 0.41376 max: 1.0345
diagonal:  Solving for T, Initial residual = 0, Final residual = 0, No Iterations 0
diagonal:  Solving for T, Initial residual = 0, Final residual = 0, No Iterations 0
diagonal:  Solving for T, Initial residual = 0, Final residual = 0, No Iterations 0
diagonal:  Solving for T, Initial residual = 0, Final residual = 0, No Iterations 0
 T goes from min(T) [0 0 0 0 0 0 0] 7.75399e-21 to max(T) [0 0 0 0 0 0 0] 0.9529

ExecutionTime = 58.56 s  ClockTime = 982 s

Time = 0.515
Courant Number mean: 0.412977 max: 1.03448
diagonal:  Solving for T, Initial residual = 0, Final residual = 0, No Iterations 0
diagonal:  Solving for T, Initial residual = 0, Final residual = 0, No Iterations 0
diagonal:  Solving for T, Initial residual = 0, Final residual = 0, No Iterations 0
diagonal:  Solving for T, Initial residual = 0, Final residual = 0, No Iterations 0
 T goes from min(T) [0 0 0 0 0 0 0] 8.19359e-21 to max(T) [0 0 0 0 0 0 0] 0.952761

ExecutionTime = 59.06 s  ClockTime = 989 s

Time = 0.52
Courant Number mean: 0.412189 max: 1.03448
diagonal:  Solving for T, Initial residual = 0, Final residual = 0, No Iterations 0
diagonal:  Solving for T, Initial residual = 0, Final residual = 0, No Iterations 0
diagonal:  Solving for T, Initial residual = 0, Final residual = 0, No Iterations 0
diagonal:  Solving for T, Initial residual = 0, Final residual = 0, No Iterations 0
 T goes from min(T) [0 0 0 0 0 0 0] 8.1099e-21 to max(T) [0 0 0 0 0 0 0] 0.952556

ExecutionTime = 59.57 s  ClockTime = 997 s

Time = 0.525
Courant Number mean: 0.4114 max: 1.03446
diagonal:  Solving for T, Initial residual = 0, Final residual = 0, No Iterations 0
diagonal:  Solving for T, Initial residual = 0, Final residual = 0, No Iterations 0
diagonal:  Solving for T, Initial residual = 0, Final residual = 0, No Iterations 0
diagonal:  Solving for T, Initial residual = 0, Final residual = 0, No Iterations 0
 T goes from min(T) [0 0 0 0 0 0 0] 7.77189e-21 to max(T) [0 0 0 0 0 0 0] 0.951758

ExecutionTime = 60.05 s  ClockTime = 1004 s

Time = 0.53
Courant Number mean: 0.41061 max: 1.03437
diagonal:  Solving for T, Initial residual = 0, Final residual = 0, No Iterations 0
diagonal:  Solving for T, Initial residual = 0, Final residual = 0, No Iterations 0
diagonal:  Solving for T, Initial residual = 0, Final residual = 0, No Iterations 0
diagonal:  Solving for T, Initial residual = 0, Final residual = 0, No Iterations 0
 T goes from min(T) [0 0 0 0 0 0 0] 7.80407e-21 to max(T) [0 0 0 0 0 0 0] 0.952562

ExecutionTime = 60.56 s  ClockTime = 1012 s

Time = 0.535
Courant Number mean: 0.409817 max: 1.03424
diagonal:  Solving for T, Initial residual = 0, Final residual = 0, No Iterations 0
diagonal:  Solving for T, Initial residual = 0, Final residual = 0, No Iterations 0
diagonal:  Solving for T, Initial residual = 0, Final residual = 0, No Iterations 0
diagonal:  Solving for T, Initial residual = 0, Final residual = 0, No Iterations 0
 T goes from min(T) [0 0 0 0 0 0 0] 8.21105e-21 to max(T) [0 0 0 0 0 0 0] 0.952969

ExecutionTime = 61.07 s  ClockTime = 1019 s

Time = 0.54
Courant Number mean: 0.409021 max: 1.03423
diagonal:  Solving for T, Initial residual = 0, Final residual = 0, No Iterations 0
diagonal:  Solving for T, Initial residual = 0, Final residual = 0, No Iterations 0
diagonal:  Solving for T, Initial residual = 0, Final residual = 0, No Iterations 0
diagonal:  Solving for T, Initial residual = 0, Final residual = 0, No Iterations 0
 T goes from min(T) [0 0 0 0 0 0 0] 8.23892e-21 to max(T) [0 0 0 0 0 0 0] 0.953003

ExecutionTime = 61.57 s  ClockTime = 1026 s

Time = 0.545
Courant Number mean: 0.40822 max: 1.03415
diagonal:  Solving for T, Initial residual = 0, Final residual = 0, No Iterations 0
diagonal:  Solving for T, Initial residual = 0, Final residual = 0, No Iterations 0
diagonal:  Solving for T, Initial residual = 0, Final residual = 0, No Iterations 0
diagonal:  Solving for T, Initial residual = 0, Final residual = 0, No Iterations 0
 T goes from min(T) [0 0 0 0 0 0 0] 7.86886e-21 to max(T) [0 0 0 0 0 0 0] 0.952686

ExecutionTime = 62.08 s  ClockTime = 1033 s

Time = 0.55
Courant Number mean: 0.40742 max: 1.034
diagonal:  Solving for T, Initial residual = 0, Final residual = 0, No Iterations 0
diagonal:  Solving for T, Initial residual = 0, Final residual = 0, No Iterations 0
diagonal:  Solving for T, Initial residual = 0, Final residual = 0, No Iterations 0
diagonal:  Solving for T, Initial residual = 0, Final residual = 0, No Iterations 0
 T goes from min(T) [0 0 0 0 0 0 0] 7.86895e-21 to max(T) [0 0 0 0 0 0 0] 0.952691

ExecutionTime = 62.58 s  ClockTime = 1040 s

Time = 0.555
Courant Number mean: 0.40662 max: 1.03378
diagonal:  Solving for T, Initial residual = 0, Final residual = 0, No Iterations 0
diagonal:  Solving for T, Initial residual = 0, Final residual = 0, No Iterations 0
diagonal:  Solving for T, Initial residual = 0, Final residual = 0, No Iterations 0
diagonal:  Solving for T, Initial residual = 0, Final residual = 0, No Iterations 0
 T goes from min(T) [0 0 0 0 0 0 0] 8.24238e-21 to max(T) [0 0 0 0 0 0 0] 0.952816

ExecutionTime = 63.08 s  ClockTime = 1047 s

Time = 0.56
Courant Number mean: 0.405816 max: 1.03351
diagonal:  Solving for T, Initial residual = 0, Final residual = 0, No Iterations 0
diagonal:  Solving for T, Initial residual = 0, Final residual = 0, No Iterations 0
diagonal:  Solving for T, Initial residual = 0, Final residual = 0, No Iterations 0
diagonal:  Solving for T, Initial residual = 0, Final residual = 0, No Iterations 0
 T goes from min(T) [0 0 0 0 0 0 0] 8.381e-21 to max(T) [0 0 0 0 0 0 0] 0.952573

ExecutionTime = 63.56 s  ClockTime = 1054 s

Time = 0.565
Courant Number mean: 0.405006 max: 1.03346
diagonal:  Solving for T, Initial residual = 0, Final residual = 0, No Iterations 0
diagonal:  Solving for T, Initial residual = 0, Final residual = 0, No Iterations 0
diagonal:  Solving for T, Initial residual = 0, Final residual = 0, No Iterations 0
diagonal:  Solving for T, Initial residual = 0, Final residual = 0, No Iterations 0
 T goes from min(T) [0 0 0 0 0 0 0] 7.97828e-21 to max(T) [0 0 0 0 0 0 0] 0.951983

ExecutionTime = 64.08 s  ClockTime = 1061 s

Time = 0.57
Courant Number mean: 0.404197 max: 1.03336
diagonal:  Solving for T, Initial residual = 0, Final residual = 0, No Iterations 0
diagonal:  Solving for T, Initial residual = 0, Final residual = 0, No Iterations 0
diagonal:  Solving for T, Initial residual = 0, Final residual = 0, No Iterations 0
diagonal:  Solving for T, Initial residual = 0, Final residual = 0, No Iterations 0
 T goes from min(T) [0 0 0 0 0 0 0] 7.94455e-21 to max(T) [0 0 0 0 0 0 0] 0.951822

ExecutionTime = 64.58 s  ClockTime = 1068 s

Time = 0.575
Courant Number mean: 0.403389 max: 1.03318
diagonal:  Solving for T, Initial residual = 0, Final residual = 0, No Iterations 0
diagonal:  Solving for T, Initial residual = 0, Final residual = 0, No Iterations 0
diagonal:  Solving for T, Initial residual = 0, Final residual = 0, No Iterations 0
diagonal:  Solving for T, Initial residual = 0, Final residual = 0, No Iterations 0
 T goes from min(T) [0 0 0 0 0 0 0] 8.28174e-21 to max(T) [0 0 0 0 0 0 0] 0.951855

ExecutionTime = 65.13 s  ClockTime = 1076 s

Time = 0.58
Courant Number mean: 0.402575 max: 1.03294
diagonal:  Solving for T, Initial residual = 0, Final residual = 0, No Iterations 0
diagonal:  Solving for T, Initial residual = 0, Final residual = 0, No Iterations 0
diagonal:  Solving for T, Initial residual = 0, Final residual = 0, No Iterations 0
diagonal:  Solving for T, Initial residual = 0, Final residual = 0, No Iterations 0
 T goes from min(T) [0 0 0 0 0 0 0] 8.53336e-21 to max(T) [0 0 0 0 0 0 0] 0.951513

ExecutionTime = 65.64 s  ClockTime = 1083 s

Time = 0.585
Courant Number mean: 0.401759 max: 1.03263
diagonal:  Solving for T, Initial residual = 0, Final residual = 0, No Iterations 0
diagonal:  Solving for T, Initial residual = 0, Final residual = 0, No Iterations 0
diagonal:  Solving for T, Initial residual = 0, Final residual = 0, No Iterations 0
diagonal:  Solving for T, Initial residual = 0, Final residual = 0, No Iterations 0
 T goes from min(T) [0 0 0 0 0 0 0] 8.09542e-21 to max(T) [0 0 0 0 0 0 0] 0.951512

ExecutionTime = 66.15 s  ClockTime = 1090 s

Time = 0.59
Courant Number mean: 0.400941 max: 1.03225
diagonal:  Solving for T, Initial residual = 0, Final residual = 0, No Iterations 0
diagonal:  Solving for T, Initial residual = 0, Final residual = 0, No Iterations 0
diagonal:  Solving for T, Initial residual = 0, Final residual = 0, No Iterations 0
diagonal:  Solving for T, Initial residual = 0, Final residual = 0, No Iterations 0
 T goes from min(T) [0 0 0 0 0 0 0] 8.02443e-21 to max(T) [0 0 0 0 0 0 0] 0.951256

ExecutionTime = 66.66 s  ClockTime = 1097 s

Time = 0.595
Courant Number mean: 0.400125 max: 1.03205
diagonal:  Solving for T, Initial residual = 0, Final residual = 0, No Iterations 0
diagonal:  Solving for T, Initial residual = 0, Final residual = 0, No Iterations 0
diagonal:  Solving for T, Initial residual = 0, Final residual = 0, No Iterations 0
diagonal:  Solving for T, Initial residual = 0, Final residual = 0, No Iterations 0
 T goes from min(T) [0 0 0 0 0 0 0] 8.32224e-21 to max(T) [0 0 0 0 0 0 0] 0.950633

ExecutionTime = 67.16 s  ClockTime = 1104 s

Time = 0.6
Courant Number mean: 0.399305 max: 1.03185
diagonal:  Solving for T, Initial residual = 0, Final residual = 0, No Iterations 0
diagonal:  Solving for T, Initial residual = 0, Final residual = 0, No Iterations 0
diagonal:  Solving for T, Initial residual = 0, Final residual = 0, No Iterations 0
diagonal:  Solving for T, Initial residual = 0, Final residual = 0, No Iterations 0
 T goes from min(T) [0 0 0 0 0 0 0] 8.6907e-21 to max(T) [0 0 0 0 0 0 0] 0.95119

ExecutionTime = 67.65 s  ClockTime = 1110 s

Time = 0.605
Courant Number mean: 0.398482 max: 1.03158
diagonal:  Solving for T, Initial residual = 0, Final residual = 0, No Iterations 0
diagonal:  Solving for T, Initial residual = 0, Final residual = 0, No Iterations 0
diagonal:  Solving for T, Initial residual = 0, Final residual = 0, No Iterations 0
diagonal:  Solving for T, Initial residual = 0, Final residual = 0, No Iterations 0
 T goes from min(T) [0 0 0 0 0 0 0] 8.21338e-21 to max(T) [0 0 0 0 0 0 0] 0.951572

ExecutionTime = 68.15 s  ClockTime = 1117 s

Time = 0.61
Courant Number mean: 0.397655 max: 1.03124
diagonal:  Solving for T, Initial residual = 0, Final residual = 0, No Iterations 0
diagonal:  Solving for T, Initial residual = 0, Final residual = 0, No Iterations 0
diagonal:  Solving for T, Initial residual = 0, Final residual = 0, No Iterations 0
diagonal:  Solving for T, Initial residual = 0, Final residual = 0, No Iterations 0
 T goes from min(T) [0 0 0 0 0 0 0] 8.10158e-21 to max(T) [0 0 0 0 0 0 0] 0.951586

ExecutionTime = 68.64 s  ClockTime = 1123 s

Time = 0.615
Courant Number mean: 0.396832 max: 1.03084
diagonal:  Solving for T, Initial residual = 0, Final residual = 0, No Iterations 0
diagonal:  Solving for T, Initial residual = 0, Final residual = 0, No Iterations 0
diagonal:  Solving for T, Initial residual = 0, Final residual = 0, No Iterations 0
diagonal:  Solving for T, Initial residual = 0, Final residual = 0, No Iterations 0
 T goes from min(T) [0 0 0 0 0 0 0] 8.35918e-21 to max(T) [0 0 0 0 0 0 0] 0.951626

ExecutionTime = 69.15 s  ClockTime = 1130 s

Time = 0.62
Courant Number mean: 0.396008 max: 1.03052
diagonal:  Solving for T, Initial residual = 0, Final residual = 0, No Iterations 0
diagonal:  Solving for T, Initial residual = 0, Final residual = 0, No Iterations 0
diagonal:  Solving for T, Initial residual = 0, Final residual = 0, No Iterations 0
diagonal:  Solving for T, Initial residual = 0, Final residual = 0, No Iterations 0
 T goes from min(T) [0 0 0 0 0 0 0] 8.84569e-21 to max(T) [0 0 0 0 0 0 0] 0.951694

ExecutionTime = 69.65 s  ClockTime = 1136 s

Time = 0.625
Courant Number mean: 0.395179 max: 1.0302
diagonal:  Solving for T, Initial residual = 0, Final residual = 0, No Iterations 0
diagonal:  Solving for T, Initial residual = 0, Final residual = 0, No Iterations 0
diagonal:  Solving for T, Initial residual = 0, Final residual = 0, No Iterations 0
diagonal:  Solving for T, Initial residual = 0, Final residual = 0, No Iterations 0
 T goes from min(T) [0 0 0 0 0 0 0] 8.32514e-21 to max(T) [0 0 0 0 0 0 0] 0.95147

ExecutionTime = 70.15 s  ClockTime = 1143 s

Time = 0.63
Courant Number mean: 0.394346 max: 1.02981
diagonal:  Solving for T, Initial residual = 0, Final residual = 0, No Iterations 0
diagonal:  Solving for T, Initial residual = 0, Final residual = 0, No Iterations 0
diagonal:  Solving for T, Initial residual = 0, Final residual = 0, No Iterations 0
diagonal:  Solving for T, Initial residual = 0, Final residual = 0, No Iterations 0
 T goes from min(T) [0 0 0 0 0 0 0] 8.172e-21 to max(T) [0 0 0 0 0 0 0] 0.951602

ExecutionTime = 70.64 s  ClockTime = 1149 s

Time = 0.635
Courant Number mean: 0.393515 max: 1.02935
diagonal:  Solving for T, Initial residual = 0, Final residual = 0, No Iterations 0
diagonal:  Solving for T, Initial residual = 0, Final residual = 0, No Iterations 0
diagonal:  Solving for T, Initial residual = 0, Final residual = 0, No Iterations 0
diagonal:  Solving for T, Initial residual = 0, Final residual = 0, No Iterations 0
 T goes from min(T) [0 0 0 0 0 0 0] 8.39506e-21 to max(T) [0 0 0 0 0 0 0] 0.951375

ExecutionTime = 71.13 s  ClockTime = 1155 s

Time = 0.64
Courant Number mean: 0.392685 max: 1.02892
diagonal:  Solving for T, Initial residual = 0, Final residual = 0, No Iterations 0
diagonal:  Solving for T, Initial residual = 0, Final residual = 0, No Iterations 0
diagonal:  Solving for T, Initial residual = 0, Final residual = 0, No Iterations 0
diagonal:  Solving for T, Initial residual = 0, Final residual = 0, No Iterations 0
 T goes from min(T) [0 0 0 0 0 0 0] 8.99144e-21 to max(T) [0 0 0 0 0 0 0] 0.951517

ExecutionTime = 71.63 s  ClockTime = 1162 s

Time = 0.645
Courant Number mean: 0.391852 max: 1.02864
diagonal:  Solving for T, Initial residual = 0, Final residual = 0, No Iterations 0
diagonal:  Solving for T, Initial residual = 0, Final residual = 0, No Iterations 0
diagonal:  Solving for T, Initial residual = 0, Final residual = 0, No Iterations 0
diagonal:  Solving for T, Initial residual = 0, Final residual = 0, No Iterations 0
 T goes from min(T) [0 0 0 0 0 0 0] 8.42756e-21 to max(T) [0 0 0 0 0 0 0] 0.951376

ExecutionTime = 72.12 s  ClockTime = 1168 s

Time = 0.65
Courant Number mean: 0.391015 max: 1.02828
diagonal:  Solving for T, Initial residual = 0, Final residual = 0, No Iterations 0
diagonal:  Solving for T, Initial residual = 0, Final residual = 0, No Iterations 0
diagonal:  Solving for T, Initial residual = 0, Final residual = 0, No Iterations 0
diagonal:  Solving for T, Initial residual = 0, Final residual = 0, No Iterations 0
 T goes from min(T) [0 0 0 0 0 0 0] 8.23995e-21 to max(T) [0 0 0 0 0 0 0] 0.951403

ExecutionTime = 72.64 s  ClockTime = 1175 s

Time = 0.655
Courant Number mean: 0.390175 max: 1.02787
diagonal:  Solving for T, Initial residual = 0, Final residual = 0, No Iterations 0
diagonal:  Solving for T, Initial residual = 0, Final residual = 0, No Iterations 0
diagonal:  Solving for T, Initial residual = 0, Final residual = 0, No Iterations 0
diagonal:  Solving for T, Initial residual = 0, Final residual = 0, No Iterations 0
 T goes from min(T) [0 0 0 0 0 0 0] 8.44498e-21 to max(T) [0 0 0 0 0 0 0] 0.951378

ExecutionTime = 73.14 s  ClockTime = 1181 s

Time = 0.66
Courant Number mean: 0.389339 max: 1.02738
diagonal:  Solving for T, Initial residual = 0, Final residual = 0, No Iterations 0
diagonal:  Solving for T, Initial residual = 0, Final residual = 0, No Iterations 0
diagonal:  Solving for T, Initial residual = 0, Final residual = 0, No Iterations 0
diagonal:  Solving for T, Initial residual = 0, Final residual = 0, No Iterations 0
 T goes from min(T) [0 0 0 0 0 0 0] 9.07417e-21 to max(T) [0 0 0 0 0 0 0] 0.951213

ExecutionTime = 73.62 s  ClockTime = 1188 s

Time = 0.665
Courant Number mean: 0.388503 max: 1.02683
diagonal:  Solving for T, Initial residual = 0, Final residual = 0, No Iterations 0
diagonal:  Solving for T, Initial residual = 0, Final residual = 0, No Iterations 0
diagonal:  Solving for T, Initial residual = 0, Final residual = 0, No Iterations 0
diagonal:  Solving for T, Initial residual = 0, Final residual = 0, No Iterations 0
 T goes from min(T) [0 0 0 0 0 0 0] 8.52712e-21 to max(T) [0 0 0 0 0 0 0] 0.951338

ExecutionTime = 74.12 s  ClockTime = 1194 s

Time = 0.67
Courant Number mean: 0.387663 max: 1.02624
diagonal:  Solving for T, Initial residual = 0, Final residual = 0, No Iterations 0
diagonal:  Solving for T, Initial residual = 0, Final residual = 0, No Iterations 0
diagonal:  Solving for T, Initial residual = 0, Final residual = 0, No Iterations 0
diagonal:  Solving for T, Initial residual = 0, Final residual = 0, No Iterations 0
 T goes from min(T) [0 0 0 0 0 0 0] -1.63822e-11 to max(T) [0 0 0 0 0 0 0] 0.951097

ExecutionTime = 74.61 s  ClockTime = 1201 s

Time = 0.675
Courant Number mean: 0.386818 max: 1.02586
diagonal:  Solving for T, Initial residual = 0, Final residual = 0, No Iterations 0
diagonal:  Solving for T, Initial residual = 0, Final residual = 0, No Iterations 0
diagonal:  Solving for T, Initial residual = 0, Final residual = 0, No Iterations 0
diagonal:  Solving for T, Initial residual = 0, Final residual = 0, No Iterations 0
 T goes from min(T) [0 0 0 0 0 0 0] -5.78764e-11 to max(T) [0 0 0 0 0 0 0] 0.951203

ExecutionTime = 75.1 s  ClockTime = 1207 s

Time = 0.68
Courant Number mean: 0.385978 max: 1.02541
diagonal:  Solving for T, Initial residual = 0, Final residual = 0, No Iterations 0
diagonal:  Solving for T, Initial residual = 0, Final residual = 0, No Iterations 0
diagonal:  Solving for T, Initial residual = 0, Final residual = 0, No Iterations 0
diagonal:  Solving for T, Initial residual = 0, Final residual = 0, No Iterations 0
 T goes from min(T) [0 0 0 0 0 0 0] -5.085e-10 to max(T) [0 0 0 0 0 0 0] 0.951134

ExecutionTime = 75.61 s  ClockTime = 1214 s

Time = 0.685
Courant Number mean: 0.385138 max: 1.0249
diagonal:  Solving for T, Initial residual = 0, Final residual = 0, No Iterations 0
diagonal:  Solving for T, Initial residual = 0, Final residual = 0, No Iterations 0
diagonal:  Solving for T, Initial residual = 0, Final residual = 0, No Iterations 0
diagonal:  Solving for T, Initial residual = 0, Final residual = 0, No Iterations 0
 T goes from min(T) [0 0 0 0 0 0 0] -8.72628e-10 to max(T) [0 0 0 0 0 0 0] 0.950908

ExecutionTime = 76.12 s  ClockTime = 1220 s

Time = 0.69
Courant Number mean: 0.384294 max: 1.02433
diagonal:  Solving for T, Initial residual = 0, Final residual = 0, No Iterations 0
diagonal:  Solving for T, Initial residual = 0, Final residual = 0, No Iterations 0
diagonal:  Solving for T, Initial residual = 0, Final residual = 0, No Iterations 0
diagonal:  Solving for T, Initial residual = 0, Final residual = 0, No Iterations 0
 T goes from min(T) [0 0 0 0 0 0 0] -1.20855e-09 to max(T) [0 0 0 0 0 0 0] 0.951051

ExecutionTime = 76.63 s  ClockTime = 1227 s

Time = 0.695
Courant Number mean: 0.383447 max: 1.02369
diagonal:  Solving for T, Initial residual = 0, Final residual = 0, No Iterations 0
diagonal:  Solving for T, Initial residual = 0, Final residual = 0, No Iterations 0
diagonal:  Solving for T, Initial residual = 0, Final residual = 0, No Iterations 0
diagonal:  Solving for T, Initial residual = 0, Final residual = 0, No Iterations 0
 T goes from min(T) [0 0 0 0 0 0 0] -1.55221e-09 to max(T) [0 0 0 0 0 0 0] 0.950826

ExecutionTime = 77.13 s  ClockTime = 1233 s

Time = 0.7
Courant Number mean: 0.3826 max: 1.02305
diagonal:  Solving for T, Initial residual = 0, Final residual = 0, No Iterations 0
diagonal:  Solving for T, Initial residual = 0, Final residual = 0, No Iterations 0
diagonal:  Solving for T, Initial residual = 0, Final residual = 0, No Iterations 0
diagonal:  Solving for T, Initial residual = 0, Final residual = 0, No Iterations 0
 T goes from min(T) [0 0 0 0 0 0 0] -1.80217e-09 to max(T) [0 0 0 0 0 0 0] 0.950767

ExecutionTime = 77.63 s  ClockTime = 1240 s

Time = 0.705
Courant Number mean: 0.381756 max: 1.02249
diagonal:  Solving for T, Initial residual = 0, Final residual = 0, No Iterations 0
diagonal:  Solving for T, Initial residual = 0, Final residual = 0, No Iterations 0
diagonal:  Solving for T, Initial residual = 0, Final residual = 0, No Iterations 0
diagonal:  Solving for T, Initial residual = 0, Final residual = 0, No Iterations 0
 T goes from min(T) [0 0 0 0 0 0 0] -2.06423e-09 to max(T) [0 0 0 0 0 0 0] 0.95078

ExecutionTime = 78.14 s  ClockTime = 1247 s

Time = 0.71
Courant Number mean: 0.38091 max: 1.02192
diagonal:  Solving for T, Initial residual = 0, Final residual = 0, No Iterations 0
diagonal:  Solving for T, Initial residual = 0, Final residual = 0, No Iterations 0
diagonal:  Solving for T, Initial residual = 0, Final residual = 0, No Iterations 0
diagonal:  Solving for T, Initial residual = 0, Final residual = 0, No Iterations 0
 T goes from min(T) [0 0 0 0 0 0 0] -2.2823e-09 to max(T) [0 0 0 0 0 0 0] 0.950434

ExecutionTime = 78.64 s  ClockTime = 1253 s

Time = 0.715
Courant Number mean: 0.380062 max: 1.02131
diagonal:  Solving for T, Initial residual = 0, Final residual = 0, No Iterations 0
diagonal:  Solving for T, Initial residual = 0, Final residual = 0, No Iterations 0
diagonal:  Solving for T, Initial residual = 0, Final residual = 0, No Iterations 0
diagonal:  Solving for T, Initial residual = 0, Final residual = 0, No Iterations 0
 T goes from min(T) [0 0 0 0 0 0 0] -4.16043e-09 to max(T) [0 0 0 0 0 0 0] 0.950478

ExecutionTime = 79.13 s  ClockTime = 1259 s

Time = 0.72
Courant Number mean: 0.379213 max: 1.02065
diagonal:  Solving for T, Initial residual = 0, Final residual = 0, No Iterations 0
diagonal:  Solving for T, Initial residual = 0, Final residual = 0, No Iterations 0
diagonal:  Solving for T, Initial residual = 0, Final residual = 0, No Iterations 0
diagonal:  Solving for T, Initial residual = 0, Final residual = 0, No Iterations 0
 T goes from min(T) [0 0 0 0 0 0 0] -8.09339e-09 to max(T) [0 0 0 0 0 0 0] 0.9504

ExecutionTime = 79.64 s  ClockTime = 1265 s

Time = 0.725
Courant Number mean: 0.378365 max: 1.02005
diagonal:  Solving for T, Initial residual = 0, Final residual = 0, No Iterations 0
diagonal:  Solving for T, Initial residual = 0, Final residual = 0, No Iterations 0
diagonal:  Solving for T, Initial residual = 0, Final residual = 0, No Iterations 0
diagonal:  Solving for T, Initial residual = 0, Final residual = 0, No Iterations 0
 T goes from min(T) [0 0 0 0 0 0 0] -1.15309e-08 to max(T) [0 0 0 0 0 0 0] 0.949971

ExecutionTime = 80.12 s  ClockTime = 1271 s

Time = 0.73
Courant Number mean: 0.377518 max: 1.01946
diagonal:  Solving for T, Initial residual = 0, Final residual = 0, No Iterations 0
diagonal:  Solving for T, Initial residual = 0, Final residual = 0, No Iterations 0
diagonal:  Solving for T, Initial residual = 0, Final residual = 0, No Iterations 0
diagonal:  Solving for T, Initial residual = 0, Final residual = 0, No Iterations 0
 T goes from min(T) [0 0 0 0 0 0 0] -1.53934e-08 to max(T) [0 0 0 0 0 0 0] 0.95004

ExecutionTime = 80.62 s  ClockTime = 1277 s

Time = 0.735
Courant Number mean: 0.376669 max: 1.01881
diagonal:  Solving for T, Initial residual = 0, Final residual = 0, No Iterations 0
diagonal:  Solving for T, Initial residual = 0, Final residual = 0, No Iterations 0
diagonal:  Solving for T, Initial residual = 0, Final residual = 0, No Iterations 0
diagonal:  Solving for T, Initial residual = 0, Final residual = 0, No Iterations 0
 T goes from min(T) [0 0 0 0 0 0 0] -1.85399e-08 to max(T) [0 0 0 0 0 0 0] 0.949908

ExecutionTime = 81.11 s  ClockTime = 1282 s

Time = 0.74
Courant Number mean: 0.375817 max: 1.0181
diagonal:  Solving for T, Initial residual = 0, Final residual = 0, No Iterations 0
diagonal:  Solving for T, Initial residual = 0, Final residual = 0, No Iterations 0
diagonal:  Solving for T, Initial residual = 0, Final residual = 0, No Iterations 0
diagonal:  Solving for T, Initial residual = 0, Final residual = 0, No Iterations 0
 T goes from min(T) [0 0 0 0 0 0 0] -2.13248e-08 to max(T) [0 0 0 0 0 0 0] 0.949432

ExecutionTime = 81.61 s  ClockTime = 1287 s

Time = 0.745
Courant Number mean: 0.374966 max: 1.01732
diagonal:  Solving for T, Initial residual = 0, Final residual = 0, No Iterations 0
diagonal:  Solving for T, Initial residual = 0, Final residual = 0, No Iterations 0
diagonal:  Solving for T, Initial residual = 0, Final residual = 0, No Iterations 0
diagonal:  Solving for T, Initial residual = 0, Final residual = 0, No Iterations 0
 T goes from min(T) [0 0 0 0 0 0 0] -2.32065e-08 to max(T) [0 0 0 0 0 0 0] 0.949434

ExecutionTime = 82.1 s  ClockTime = 1292 s

Time = 0.75
Courant Number mean: 0.374118 max: 1.01655
diagonal:  Solving for T, Initial residual = 0, Final residual = 0, No Iterations 0
diagonal:  Solving for T, Initial residual = 0, Final residual = 0, No Iterations 0
diagonal:  Solving for T, Initial residual = 0, Final residual = 0, No Iterations 0
diagonal:  Solving for T, Initial residual = 0, Final residual = 0, No Iterations 0
 T goes from min(T) [0 0 0 0 0 0 0] -2.48564e-08 to max(T) [0 0 0 0 0 0 0] 0.949287

ExecutionTime = 82.61 s  ClockTime = 1298 s

Time = 0.755
Courant Number mean: 0.373268 max: 1.01593
diagonal:  Solving for T, Initial residual = 0, Final residual = 0, No Iterations 0
diagonal:  Solving for T, Initial residual = 0, Final residual = 0, No Iterations 0
diagonal:  Solving for T, Initial residual = 0, Final residual = 0, No Iterations 0
diagonal:  Solving for T, Initial residual = 0, Final residual = 0, No Iterations 0
 T goes from min(T) [0 0 0 0 0 0 0] -2.55038e-08 to max(T) [0 0 0 0 0 0 0] 0.949278

ExecutionTime = 83.12 s  ClockTime = 1303 s

Time = 0.76
Courant Number mean: 0.372416 max: 1.01526
diagonal:  Solving for T, Initial residual = 0, Final residual = 0, No Iterations 0
[...]
diagonal:  Solving for T, Initial residual = 0, Final residual = 0, No Iterations 0
 T goes from min(T) [0 0 0 0 0 0 0] -0.113127 to max(T) [0 0 0 0 0 0 0] 0.831168

ExecutionTime = 593.1 s  ClockTime = 4060 s

Time = 5.815
Courant Number mean: 0.410011 max: 0.971629
diagonal:  Solving for T, Initial residual = 0, Final residual = 0, No Iterations 0
diagonal:  Solving for T, Initial residual = 0, Final residual = 0, No Iterations 0
diagonal:  Solving for T, Initial residual = 0, Final residual = 0, No Iterations 0
diagonal:  Solving for T, Initial residual = 0, Final residual = 0, No Iterations 0
 T goes from min(T) [0 0 0 0 0 0 0] -0.11366 to max(T) [0 0 0 0 0 0 0] 0.830706

ExecutionTime = 593.6 s  ClockTime = 4062 s

Time = 5.82
Courant Number mean: 0.410351 max: 0.969835
diagonal:  Solving for T, Initial residual = 0, Final residual = 0, No Iterations 0
diagonal:  Solving for T, Initial residual = 0, Final residual = 0, No Iterations 0
diagonal:  Solving for T, Initial residual = 0, Final residual = 0, No Iterations 0
diagonal:  Solving for T, Initial residual = 0, Final residual = 0, No Iterations 0
 T goes from min(T) [0 0 0 0 0 0 0] -0.112799 to max(T) [0 0 0 0 0 0 0] 0.830631

ExecutionTime = 594.13 s  ClockTime = 4064 s

Time = 5.825
Courant Number mean: 0.410691 max: 0.967989
diagonal:  Solving for T, Initial residual = 0, Final residual = 0, No Iterations 0
diagonal:  Solving for T, Initial residual = 0, Final residual = 0, No Iterations 0
diagonal:  Solving for T, Initial residual = 0, Final residual = 0, No Iterations 0
diagonal:  Solving for T, Initial residual = 0, Final residual = 0, No Iterations 0
 T goes from min(T) [0 0 0 0 0 0 0] -0.111517 to max(T) [0 0 0 0 0 0 0] 0.831147

ExecutionTime = 594.65 s  ClockTime = 4066 s

Time = 5.83
Courant Number mean: 0.411026 max: 0.966265
diagonal:  Solving for T, Initial residual = 0, Final residual = 0, No Iterations 0
diagonal:  Solving for T, Initial residual = 0, Final residual = 0, No Iterations 0
diagonal:  Solving for T, Initial residual = 0, Final residual = 0, No Iterations 0
diagonal:  Solving for T, Initial residual = 0, Final residual = 0, No Iterations 0
 T goes from min(T) [0 0 0 0 0 0 0] -0.113092 to max(T) [0 0 0 0 0 0 0] 0.831387

ExecutionTime = 595.16 s  ClockTime = 4068 s

Time = 5.835
Courant Number mean: 0.411355 max: 0.964484
diagonal:  Solving for T, Initial residual = 0, Final residual = 0, No Iterations 0
diagonal:  Solving for T, Initial residual = 0, Final residual = 0, No Iterations 0
diagonal:  Solving for T, Initial residual = 0, Final residual = 0, No Iterations 0
diagonal:  Solving for T, Initial residual = 0, Final residual = 0, No Iterations 0
 T goes from min(T) [0 0 0 0 0 0 0] -0.11325 to max(T) [0 0 0 0 0 0 0] 0.831356

ExecutionTime = 595.65 s  ClockTime = 4070 s

Time = 5.84
Courant Number mean: 0.411683 max: 0.962645
diagonal:  Solving for T, Initial residual = 0, Final residual = 0, No Iterations 0
diagonal:  Solving for T, Initial residual = 0, Final residual = 0, No Iterations 0
diagonal:  Solving for T, Initial residual = 0, Final residual = 0, No Iterations 0
diagonal:  Solving for T, Initial residual = 0, Final residual = 0, No Iterations 0
 T goes from min(T) [0 0 0 0 0 0 0] -0.11219 to max(T) [0 0 0 0 0 0 0] 0.831349

ExecutionTime = 596.21 s  ClockTime = 4072 s

Time = 5.845
Courant Number mean: 0.412011 max: 0.960788
diagonal:  Solving for T, Initial residual = 0, Final residual = 0, No Iterations 0
diagonal:  Solving for T, Initial residual = 0, Final residual = 0, No Iterations 0
diagonal:  Solving for T, Initial residual = 0, Final residual = 0, No Iterations 0
diagonal:  Solving for T, Initial residual = 0, Final residual = 0, No Iterations 0
 T goes from min(T) [0 0 0 0 0 0 0] -0.111696 to max(T) [0 0 0 0 0 0 0] 0.831398

ExecutionTime = 596.69 s  ClockTime = 4074 s

Time = 5.85
Courant Number mean: 0.412332 max: 0.95898
diagonal:  Solving for T, Initial residual = 0, Final residual = 0, No Iterations 0
diagonal:  Solving for T, Initial residual = 0, Final residual = 0, No Iterations 0
diagonal:  Solving for T, Initial residual = 0, Final residual = 0, No Iterations 0
diagonal:  Solving for T, Initial residual = 0, Final residual = 0, No Iterations 0
 T goes from min(T) [0 0 0 0 0 0 0] -0.112882 to max(T) [0 0 0 0 0 0 0] 0.83121

ExecutionTime = 597.19 s  ClockTime = 4076 s

Time = 5.855
Courant Number mean: 0.412649 max: 0.957251
diagonal:  Solving for T, Initial residual = 0, Final residual = 0, No Iterations 0
diagonal:  Solving for T, Initial residual = 0, Final residual = 0, No Iterations 0
diagonal:  Solving for T, Initial residual = 0, Final residual = 0, No Iterations 0
diagonal:  Solving for T, Initial residual = 0, Final residual = 0, No Iterations 0
 T goes from min(T) [0 0 0 0 0 0 0] -0.112892 to max(T) [0 0 0 0 0 0 0] 0.830795

ExecutionTime = 597.7 s  ClockTime = 4078 s

Time = 5.86
Courant Number mean: 0.412965 max: 0.955464
diagonal:  Solving for T, Initial residual = 0, Final residual = 0, No Iterations 0
diagonal:  Solving for T, Initial residual = 0, Final residual = 0, No Iterations 0
diagonal:  Solving for T, Initial residual = 0, Final residual = 0, No Iterations 0
diagonal:  Solving for T, Initial residual = 0, Final residual = 0, No Iterations 0
 T goes from min(T) [0 0 0 0 0 0 0] -0.111718 to max(T) [0 0 0 0 0 0 0] 0.830654

ExecutionTime = 598.2 s  ClockTime = 4080 s

Time = 5.865
Courant Number mean: 0.413279 max: 0.953622
diagonal:  Solving for T, Initial residual = 0, Final residual = 0, No Iterations 0
diagonal:  Solving for T, Initial residual = 0, Final residual = 0, No Iterations 0
diagonal:  Solving for T, Initial residual = 0, Final residual = 0, No Iterations 0
diagonal:  Solving for T, Initial residual = 0, Final residual = 0, No Iterations 0
 T goes from min(T) [0 0 0 0 0 0 0] -0.111623 to max(T) [0 0 0 0 0 0 0] 0.830769

ExecutionTime = 598.72 s  ClockTime = 4082 s

Time = 5.87
Courant Number mean: 0.413589 max: 0.951723
diagonal:  Solving for T, Initial residual = 0, Final residual = 0, No Iterations 0
diagonal:  Solving for T, Initial residual = 0, Final residual = 0, No Iterations 0
diagonal:  Solving for T, Initial residual = 0, Final residual = 0, No Iterations 0
diagonal:  Solving for T, Initial residual = 0, Final residual = 0, No Iterations 0
 T goes from min(T) [0 0 0 0 0 0 0] -0.112674 to max(T) [0 0 0 0 0 0 0] 0.831143

ExecutionTime = 599.22 s  ClockTime = 4084 s

Time = 5.875
Courant Number mean: 0.413892 max: 0.949769
diagonal:  Solving for T, Initial residual = 0, Final residual = 0, No Iterations 0
diagonal:  Solving for T, Initial residual = 0, Final residual = 0, No Iterations 0
diagonal:  Solving for T, Initial residual = 0, Final residual = 0, No Iterations 0
diagonal:  Solving for T, Initial residual = 0, Final residual = 0, No Iterations 0
 T goes from min(T) [0 0 0 0 0 0 0] -0.112564 to max(T) [0 0 0 0 0 0 0] 0.83129

ExecutionTime = 599.73 s  ClockTime = 4086 s

Time = 5.88
Courant Number mean: 0.414193 max: 0.947878
diagonal:  Solving for T, Initial residual = 0, Final residual = 0, No Iterations 0
diagonal:  Solving for T, Initial residual = 0, Final residual = 0, No Iterations 0
diagonal:  Solving for T, Initial residual = 0, Final residual = 0, No Iterations 0
diagonal:  Solving for T, Initial residual = 0, Final residual = 0, No Iterations 0
 T goes from min(T) [0 0 0 0 0 0 0] -0.111408 to max(T) [0 0 0 0 0 0 0] 0.831217

ExecutionTime = 600.23 s  ClockTime = 4088 s

Time = 5.885
Courant Number mean: 0.414493 max: 0.94609
diagonal:  Solving for T, Initial residual = 0, Final residual = 0, No Iterations 0
diagonal:  Solving for T, Initial residual = 0, Final residual = 0, No Iterations 0
diagonal:  Solving for T, Initial residual = 0, Final residual = 0, No Iterations 0
diagonal:  Solving for T, Initial residual = 0, Final residual = 0, No Iterations 0
 T goes from min(T) [0 0 0 0 0 0 0] -0.111516 to max(T) [0 0 0 0 0 0 0] 0.831058

ExecutionTime = 600.72 s  ClockTime = 4090 s

Time = 5.89
Courant Number mean: 0.414787 max: 0.944245
diagonal:  Solving for T, Initial residual = 0, Final residual = 0, No Iterations 0
diagonal:  Solving for T, Initial residual = 0, Final residual = 0, No Iterations 0
diagonal:  Solving for T, Initial residual = 0, Final residual = 0, No Iterations 0
diagonal:  Solving for T, Initial residual = 0, Final residual = 0, No Iterations 0
 T goes from min(T) [0 0 0 0 0 0 0] -0.112427 to max(T) [0 0 0 0 0 0 0] 0.831225

ExecutionTime = 601.21 s  ClockTime = 4092 s

Time = 5.895
Courant Number mean: 0.415077 max: 0.942345
diagonal:  Solving for T, Initial residual = 0, Final residual = 0, No Iterations 0
diagonal:  Solving for T, Initial residual = 0, Final residual = 0, No Iterations 0
diagonal:  Solving for T, Initial residual = 0, Final residual = 0, No Iterations 0
diagonal:  Solving for T, Initial residual = 0, Final residual = 0, No Iterations 0
 T goes from min(T) [0 0 0 0 0 0 0] -0.112283 to max(T) [0 0 0 0 0 0 0] 0.831203

ExecutionTime = 601.7 s  ClockTime = 4094 s

Time = 5.9
Courant Number mean: 0.415364 max: 0.94039
diagonal:  Solving for T, Initial residual = 0, Final residual = 0, No Iterations 0
diagonal:  Solving for T, Initial residual = 0, Final residual = 0, No Iterations 0
diagonal:  Solving for T, Initial residual = 0, Final residual = 0, No Iterations 0
diagonal:  Solving for T, Initial residual = 0, Final residual = 0, No Iterations 0
 T goes from min(T) [0 0 0 0 0 0 0] -0.111243 to max(T) [0 0 0 0 0 0 0] 0.830999

ExecutionTime = 602.19 s  ClockTime = 4096 s

Time = 5.905
Courant Number mean: 0.41565 max: 0.938381
diagonal:  Solving for T, Initial residual = 0, Final residual = 0, No Iterations 0
diagonal:  Solving for T, Initial residual = 0, Final residual = 0, No Iterations 0
diagonal:  Solving for T, Initial residual = 0, Final residual = 0, No Iterations 0
diagonal:  Solving for T, Initial residual = 0, Final residual = 0, No Iterations 0
 T goes from min(T) [0 0 0 0 0 0 0] -0.111293 to max(T) [0 0 0 0 0 0 0] 0.830622

ExecutionTime = 602.69 s  ClockTime = 4098 s

Time = 5.91
Courant Number mean: 0.41593 max: 0.936376
diagonal:  Solving for T, Initial residual = 0, Final residual = 0, No Iterations 0
diagonal:  Solving for T, Initial residual = 0, Final residual = 0, No Iterations 0
diagonal:  Solving for T, Initial residual = 0, Final residual = 0, No Iterations 0
diagonal:  Solving for T, Initial residual = 0, Final residual = 0, No Iterations 0
 T goes from min(T) [0 0 0 0 0 0 0] -0.112116 to max(T) [0 0 0 0 0 0 0] 0.830564

ExecutionTime = 603.19 s  ClockTime = 4100 s

Time = 5.915
Courant Number mean: 0.416202 max: 0.934532
diagonal:  Solving for T, Initial residual = 0, Final residual = 0, No Iterations 0
diagonal:  Solving for T, Initial residual = 0, Final residual = 0, No Iterations 0
diagonal:  Solving for T, Initial residual = 0, Final residual = 0, No Iterations 0
diagonal:  Solving for T, Initial residual = 0, Final residual = 0, No Iterations 0
 T goes from min(T) [0 0 0 0 0 0 0] -0.112024 to max(T) [0 0 0 0 0 0 0] 0.830584

ExecutionTime = 603.67 s  ClockTime = 4102 s

Time = 5.92
Courant Number mean: 0.416474 max: 0.932633
diagonal:  Solving for T, Initial residual = 0, Final residual = 0, No Iterations 0
diagonal:  Solving for T, Initial residual = 0, Final residual = 0, No Iterations 0
diagonal:  Solving for T, Initial residual = 0, Final residual = 0, No Iterations 0
diagonal:  Solving for T, Initial residual = 0, Final residual = 0, No Iterations 0
 T goes from min(T) [0 0 0 0 0 0 0] -0.111162 to max(T) [0 0 0 0 0 0 0] 0.830921

ExecutionTime = 604.17 s  ClockTime = 4104 s

Time = 5.925
Courant Number mean: 0.416743 max: 0.93068
diagonal:  Solving for T, Initial residual = 0, Final residual = 0, No Iterations 0
diagonal:  Solving for T, Initial residual = 0, Final residual = 0, No Iterations 0
diagonal:  Solving for T, Initial residual = 0, Final residual = 0, No Iterations 0
diagonal:  Solving for T, Initial residual = 0, Final residual = 0, No Iterations 0
 T goes from min(T) [0 0 0 0 0 0 0] -0.110956 to max(T) [0 0 0 0 0 0 0] 0.831083

ExecutionTime = 604.66 s  ClockTime = 4106 s

Time = 5.93
Courant Number mean: 0.417006 max: 0.928673
diagonal:  Solving for T, Initial residual = 0, Final residual = 0, No Iterations 0
diagonal:  Solving for T, Initial residual = 0, Final residual = 0, No Iterations 0
diagonal:  Solving for T, Initial residual = 0, Final residual = 0, No Iterations 0
diagonal:  Solving for T, Initial residual = 0, Final residual = 0, No Iterations 0
 T goes from min(T) [0 0 0 0 0 0 0] -0.111798 to max(T) [0 0 0 0 0 0 0] 0.831076

ExecutionTime = 605.15 s  ClockTime = 4108 s

Time = 5.935
Courant Number mean: 0.417264 max: 0.926677
diagonal:  Solving for T, Initial residual = 0, Final residual = 0, No Iterations 0
diagonal:  Solving for T, Initial residual = 0, Final residual = 0, No Iterations 0
diagonal:  Solving for T, Initial residual = 0, Final residual = 0, No Iterations 0
diagonal:  Solving for T, Initial residual = 0, Final residual = 0, No Iterations 0
 T goes from min(T) [0 0 0 0 0 0 0] -0.111755 to max(T) [0 0 0 0 0 0 0] 0.830904

ExecutionTime = 605.65 s  ClockTime = 4110 s

Time = 5.94
Courant Number mean: 0.417519 max: 0.924733
diagonal:  Solving for T, Initial residual = 0, Final residual = 0, No Iterations 0
diagonal:  Solving for T, Initial residual = 0, Final residual = 0, No Iterations 0
diagonal:  Solving for T, Initial residual = 0, Final residual = 0, No Iterations 0
diagonal:  Solving for T, Initial residual = 0, Final residual = 0, No Iterations 0
 T goes from min(T) [0 0 0 0 0 0 0] -0.111063 to max(T) [0 0 0 0 0 0 0] 0.830717

ExecutionTime = 606.15 s  ClockTime = 4112 s

Time = 5.945
Courant Number mean: 0.417772 max: 0.922735
diagonal:  Solving for T, Initial residual = 0, Final residual = 0, No Iterations 0
diagonal:  Solving for T, Initial residual = 0, Final residual = 0, No Iterations 0
diagonal:  Solving for T, Initial residual = 0, Final residual = 0, No Iterations 0
diagonal:  Solving for T, Initial residual = 0, Final residual = 0, No Iterations 0
 T goes from min(T) [0 0 0 0 0 0 0] -0.110646 to max(T) [0 0 0 0 0 0 0] 0.830935

ExecutionTime = 606.64 s  ClockTime = 4114 s

Time = 5.95
Courant Number mean: 0.418017 max: 0.920685
diagonal:  Solving for T, Initial residual = 0, Final residual = 0, No Iterations 0
diagonal:  Solving for T, Initial residual = 0, Final residual = 0, No Iterations 0
diagonal:  Solving for T, Initial residual = 0, Final residual = 0, No Iterations 0
diagonal:  Solving for T, Initial residual = 0, Final residual = 0, No Iterations 0
 T goes from min(T) [0 0 0 0 0 0 0] -0.111514 to max(T) [0 0 0 0 0 0 0] 0.831016

ExecutionTime = 607.13 s  ClockTime = 4116 s

Time = 5.955
Courant Number mean: 0.418257 max: 0.918651
diagonal:  Solving for T, Initial residual = 0, Final residual = 0, No Iterations 0
diagonal:  Solving for T, Initial residual = 0, Final residual = 0, No Iterations 0
diagonal:  Solving for T, Initial residual = 0, Final residual = 0, No Iterations 0
diagonal:  Solving for T, Initial residual = 0, Final residual = 0, No Iterations 0
 T goes from min(T) [0 0 0 0 0 0 0] -0.111616 to max(T) [0 0 0 0 0 0 0] 0.830967

ExecutionTime = 607.64 s  ClockTime = 4118 s

Time = 5.96
Courant Number mean: 0.418495 max: 0.916691
diagonal:  Solving for T, Initial residual = 0, Final residual = 0, No Iterations 0
diagonal:  Solving for T, Initial residual = 0, Final residual = 0, No Iterations 0
diagonal:  Solving for T, Initial residual = 0, Final residual = 0, No Iterations 0
diagonal:  Solving for T, Initial residual = 0, Final residual = 0, No Iterations 0
 T goes from min(T) [0 0 0 0 0 0 0] -0.111083 to max(T) [0 0 0 0 0 0 0] 0.830794

ExecutionTime = 608.14 s  ClockTime = 4120 s

Time = 5.965
Courant Number mean: 0.418729 max: 0.914749
diagonal:  Solving for T, Initial residual = 0, Final residual = 0, No Iterations 0
diagonal:  Solving for T, Initial residual = 0, Final residual = 0, No Iterations 0
diagonal:  Solving for T, Initial residual = 0, Final residual = 0, No Iterations 0
diagonal:  Solving for T, Initial residual = 0, Final residual = 0, No Iterations 0
 T goes from min(T) [0 0 0 0 0 0 0] -0.110153 to max(T) [0 0 0 0 0 0 0] 0.830504

ExecutionTime = 608.64 s  ClockTime = 4122 s

Time = 5.97
Courant Number mean: 0.418957 max: 0.912754
diagonal:  Solving for T, Initial residual = 0, Final residual = 0, No Iterations 0
diagonal:  Solving for T, Initial residual = 0, Final residual = 0, No Iterations 0
diagonal:  Solving for T, Initial residual = 0, Final residual = 0, No Iterations 0
diagonal:  Solving for T, Initial residual = 0, Final residual = 0, No Iterations 0
 T goes from min(T) [0 0 0 0 0 0 0] -0.111085 to max(T) [0 0 0 0 0 0 0] 0.830176

ExecutionTime = 609.14 s  ClockTime = 4124 s

Time = 5.975
Courant Number mean: 0.419178 max: 0.910708
diagonal:  Solving for T, Initial residual = 0, Final residual = 0, No Iterations 0
diagonal:  Solving for T, Initial residual = 0, Final residual = 0, No Iterations 0
diagonal:  Solving for T, Initial residual = 0, Final residual = 0, No Iterations 0
diagonal:  Solving for T, Initial residual = 0, Final residual = 0, No Iterations 0
 T goes from min(T) [0 0 0 0 0 0 0] -0.111313 to max(T) [0 0 0 0 0 0 0] 0.830374

ExecutionTime = 609.64 s  ClockTime = 4126 s

Time = 5.98
Courant Number mean: 0.419396 max: 0.908609
diagonal:  Solving for T, Initial residual = 0, Final residual = 0, No Iterations 0
diagonal:  Solving for T, Initial residual = 0, Final residual = 0, No Iterations 0
diagonal:  Solving for T, Initial residual = 0, Final residual = 0, No Iterations 0
diagonal:  Solving for T, Initial residual = 0, Final residual = 0, No Iterations 0
 T goes from min(T) [0 0 0 0 0 0 0] -0.111007 to max(T) [0 0 0 0 0 0 0] 0.83053

ExecutionTime = 610.12 s  ClockTime = 4127 s

Time = 5.985
Courant Number mean: 0.419611 max: 0.90646
diagonal:  Solving for T, Initial residual = 0, Final residual = 0, No Iterations 0
diagonal:  Solving for T, Initial residual = 0, Final residual = 0, No Iterations 0
diagonal:  Solving for T, Initial residual = 0, Final residual = 0, No Iterations 0
diagonal:  Solving for T, Initial residual = 0, Final residual = 0, No Iterations 0
 T goes from min(T) [0 0 0 0 0 0 0] -0.110256 to max(T) [0 0 0 0 0 0 0] 0.830727

ExecutionTime = 610.62 s  ClockTime = 4129 s

Time = 5.99
Courant Number mean: 0.419818 max: 0.904468
diagonal:  Solving for T, Initial residual = 0, Final residual = 0, No Iterations 0
diagonal:  Solving for T, Initial residual = 0, Final residual = 0, No Iterations 0
diagonal:  Solving for T, Initial residual = 0, Final residual = 0, No Iterations 0
diagonal:  Solving for T, Initial residual = 0, Final residual = 0, No Iterations 0
 T goes from min(T) [0 0 0 0 0 0 0] -0.110763 to max(T) [0 0 0 0 0 0 0] 0.830806

ExecutionTime = 611.12 s  ClockTime = 4131 s

Time = 5.995
Courant Number mean: 0.420019 max: 0.902478
diagonal:  Solving for T, Initial residual = 0, Final residual = 0, No Iterations 0
diagonal:  Solving for T, Initial residual = 0, Final residual = 0, No Iterations 0
diagonal:  Solving for T, Initial residual = 0, Final residual = 0, No Iterations 0
diagonal:  Solving for T, Initial residual = 0, Final residual = 0, No Iterations 0
 T goes from min(T) [0 0 0 0 0 0 0] -0.111148 to max(T) [0 0 0 0 0 0 0] 0.830773

ExecutionTime = 611.61 s  ClockTime = 4133 s

Time = 6
Courant Number mean: 0.420218 max: 0.900438
diagonal:  Solving for T, Initial residual = 0, Final residual = 0, No Iterations 0
diagonal:  Solving for T, Initial residual = 0, Final residual = 0, No Iterations 0
diagonal:  Solving for T, Initial residual = 0, Final residual = 0, No Iterations 0
diagonal:  Solving for T, Initial residual = 0, Final residual = 0, No Iterations 0
 T goes from min(T) [0 0 0 0 0 0 0] -0.111003 to max(T) [0 0 0 0 0 0 0] 0.830635

ExecutionTime = 612.11 s  ClockTime = 4135 s

End

