/*---------------------------------------------------------------------------*\
| =========                 |                                                 |
| \\      /  F ield         | OpenFOAM: The Open Source CFD Toolbox           |
|  \\    /   O peration     | Version:  dev                                   |
|   \\  /    A nd           | Web:      www.OpenFOAM.org                      |
|    \\/     M anipulation  |                                                 |
\*---------------------------------------------------------------------------*/
Build  : dev-90f39e0d894d
Exec   : scalarDeformationWithGhosts implicit -case orthogonal/240x120/c2_implicit
Date   : May 23 2017
Time   : 20:31:21
Host   : "sws02hw.private.rdg.ac.uk"
PID    : 22920
Case   : orthogonal/240x120/c2_implicit
nProcs : 1
sigFpe : Enabling floating point exception trapping (FOAM_SIGFPE).
fileModificationChecking : Monitoring run-time modified files using timeStampMaster (fileModificationSkew 10)
allowSystemOperations : Allowing user-supplied system call operations

// * * * * * * * * * * * * * * * * * * * * * * * * * * * * * * * * * * * * * //
Create time

Create mesh for time = 0

Reading field T

Reading fields phi (compulsory), U and Uf (optional)

Calculating owner stencils
Calculating neighbour stencils

Calculating scalar transport

Courant Number mean: 0.749072 max: 1.47194
Time = 0.01
Courant Number mean: 0.748987 max: 1.47193
DILUPBiCG:  Solving for T, Initial residual = 0.0134765, Final residual = 1.68361e-09, No Iterations 4
DILUPBiCG:  Solving for T, Initial residual = 9.69425e-05, Final residual = 3.08621e-09, No Iterations 3
DILUPBiCG:  Solving for T, Initial residual = 2.77066e-07, Final residual = 7.24548e-09, No Iterations 1
DILUPBiCG:  Solving for T, Initial residual = 7.10517e-09, Final residual = 7.10517e-09, No Iterations 0
 T goes from min(T) [0 0 0 0 0 0 0] 8.29736e-21 to max(T) [0 0 0 0 0 0 0] 0.95387

ExecutionTime = 7.9 s  ClockTime = 157 s

Time = 0.02
Courant Number mean: 0.749043 max: 1.47188
DILUPBiCG:  Solving for T, Initial residual = 0.0134755, Final residual = 1.84356e-09, No Iterations 4
DILUPBiCG:  Solving for T, Initial residual = 9.70147e-05, Final residual = 2.87214e-09, No Iterations 3
DILUPBiCG:  Solving for T, Initial residual = 2.7903e-07, Final residual = 7.24591e-09, No Iterations 1
DILUPBiCG:  Solving for T, Initial residual = 7.03352e-09, Final residual = 7.03352e-09, No Iterations 0
 T goes from min(T) [0 0 0 0 0 0 0] 9.22993e-21 to max(T) [0 0 0 0 0 0 0] 0.953687

ExecutionTime = 8.42 s  ClockTime = 168 s

Time = 0.03
Courant Number mean: 0.748943 max: 1.47179
DILUPBiCG:  Solving for T, Initial residual = 0.0134803, Final residual = 1.9974e-09, No Iterations 4
DILUPBiCG:  Solving for T, Initial residual = 9.72165e-05, Final residual = 2.65901e-09, No Iterations 3
DILUPBiCG:  Solving for T, Initial residual = 2.81898e-07, Final residual = 7.26956e-09, No Iterations 1
DILUPBiCG:  Solving for T, Initial residual = 7.04212e-09, Final residual = 7.04212e-09, No Iterations 0
 T goes from min(T) [0 0 0 0 0 0 0] 8.4784e-21 to max(T) [0 0 0 0 0 0 0] 0.953215

ExecutionTime = 8.97 s  ClockTime = 180 s

Time = 0.04
Courant Number mean: 0.748956 max: 1.47166
DILUPBiCG:  Solving for T, Initial residual = 0.0134871, Final residual = 2.13732e-09, No Iterations 4
DILUPBiCG:  Solving for T, Initial residual = 9.75121e-05, Final residual = 2.46014e-09, No Iterations 3
DILUPBiCG:  Solving for T, Initial residual = 2.85335e-07, Final residual = 7.29695e-09, No Iterations 1
DILUPBiCG:  Solving for T, Initial residual = 7.00216e-09, Final residual = 7.00216e-09, No Iterations 0
 T goes from min(T) [0 0 0 0 0 0 0] 9.12522e-21 to max(T) [0 0 0 0 0 0 0] 0.953865

ExecutionTime = 9.5 s  ClockTime = 191 s

Time = 0.05
Courant Number mean: 0.74884 max: 1.47149
DILUPBiCG:  Solving for T, Initial residual = 0.0134942, Final residual = 2.25116e-09, No Iterations 4
DILUPBiCG:  Solving for T, Initial residual = 9.78943e-05, Final residual = 2.27409e-09, No Iterations 3
DILUPBiCG:  Solving for T, Initial residual = 2.89688e-07, Final residual = 7.34094e-09, No Iterations 1
DILUPBiCG:  Solving for T, Initial residual = 7.02152e-09, Final residual = 7.02152e-09, No Iterations 0
 T goes from min(T) [0 0 0 0 0 0 0] 8.54051e-21 to max(T) [0 0 0 0 0 0 0] 0.95394

ExecutionTime = 10.06 s  ClockTime = 202 s

Time = 0.06
Courant Number mean: 0.748811 max: 1.47128
DILUPBiCG:  Solving for T, Initial residual = 0.013503, Final residual = 2.33736e-09, No Iterations 4
DILUPBiCG:  Solving for T, Initial residual = 9.83512e-05, Final residual = 2.10867e-09, No Iterations 3
DILUPBiCG:  Solving for T, Initial residual = 2.94459e-07, Final residual = 7.38485e-09, No Iterations 1
DILUPBiCG:  Solving for T, Initial residual = 7.00842e-09, Final residual = 7.00842e-09, No Iterations 0
 T goes from min(T) [0 0 0 0 0 0 0] 9.00198e-21 to max(T) [0 0 0 0 0 0 0] 0.953441

ExecutionTime = 10.58 s  ClockTime = 213 s

Time = 0.07
Courant Number mean: 0.74868 max: 1.47103
DILUPBiCG:  Solving for T, Initial residual = 0.0135119, Final residual = 2.39053e-09, No Iterations 4
DILUPBiCG:  Solving for T, Initial residual = 9.8865e-05, Final residual = 1.95988e-09, No Iterations 3
DILUPBiCG:  Solving for T, Initial residual = 2.99907e-07, Final residual = 7.43736e-09, No Iterations 1
DILUPBiCG:  Solving for T, Initial residual = 7.03675e-09, Final residual = 7.03675e-09, No Iterations 0
 T goes from min(T) [0 0 0 0 0 0 0] 8.57295e-21 to max(T) [0 0 0 0 0 0 0] 0.954124

ExecutionTime = 11.09 s  ClockTime = 224 s

Time = 0.08
Courant Number mean: 0.748608 max: 1.47074
DILUPBiCG:  Solving for T, Initial residual = 0.0135205, Final residual = 2.41998e-09, No Iterations 4
DILUPBiCG:  Solving for T, Initial residual = 9.94495e-05, Final residual = 1.831e-09, No Iterations 3
DILUPBiCG:  Solving for T, Initial residual = 3.05938e-07, Final residual = 7.4867e-09, No Iterations 1
DILUPBiCG:  Solving for T, Initial residual = 7.03934e-09, Final residual = 7.03934e-09, No Iterations 0
 T goes from min(T) [0 0 0 0 0 0 0] 8.88111e-21 to max(T) [0 0 0 0 0 0 0] 0.953448

ExecutionTime = 11.6 s  ClockTime = 235 s

Time = 0.09
Courant Number mean: 0.748461 max: 1.47041
DILUPBiCG:  Solving for T, Initial residual = 0.0135288, Final residual = 2.42753e-09, No Iterations 4
DILUPBiCG:  Solving for T, Initial residual = 0.000100075, Final residual = 1.71747e-09, No Iterations 3
DILUPBiCG:  Solving for T, Initial residual = 3.12289e-07, Final residual = 7.53534e-09, No Iterations 1
DILUPBiCG:  Solving for T, Initial residual = 7.06985e-09, Final residual = 7.06985e-09, No Iterations 0
 T goes from min(T) [0 0 0 0 0 0 0] 8.59679e-21 to max(T) [0 0 0 0 0 0 0] 0.953716

ExecutionTime = 12.11 s  ClockTime = 245 s

Time = 0.1
Courant Number mean: 0.748347 max: 1.47004
DILUPBiCG:  Solving for T, Initial residual = 0.0135372, Final residual = 2.42471e-09, No Iterations 4
DILUPBiCG:  Solving for T, Initial residual = 0.000100738, Final residual = 1.62027e-09, No Iterations 3
DILUPBiCG:  Solving for T, Initial residual = 3.19255e-07, Final residual = 7.58127e-09, No Iterations 1
DILUPBiCG:  Solving for T, Initial residual = 7.08386e-09, Final residual = 7.08386e-09, No Iterations 0
 T goes from min(T) [0 0 0 0 0 0 0] 8.7686e-21 to max(T) [0 0 0 0 0 0 0] 0.953743

ExecutionTime = 12.62 s  ClockTime = 255 s

Time = 0.11
Courant Number mean: 0.748185 max: 1.46963
DILUPBiCG:  Solving for T, Initial residual = 0.0135437, Final residual = 2.41719e-09, No Iterations 4
DILUPBiCG:  Solving for T, Initial residual = 0.000101428, Final residual = 1.53574e-09, No Iterations 3
DILUPBiCG:  Solving for T, Initial residual = 3.26432e-07, Final residual = 7.62178e-09, No Iterations 1
DILUPBiCG:  Solving for T, Initial residual = 7.11352e-09, Final residual = 7.11352e-09, No Iterations 0
 T goes from min(T) [0 0 0 0 0 0 0] 8.62046e-21 to max(T) [0 0 0 0 0 0 0] 0.953949

ExecutionTime = 13.11 s  ClockTime = 264 s

Time = 0.12
Courant Number mean: 0.748028 max: 1.46918
DILUPBiCG:  Solving for T, Initial residual = 0.0135504, Final residual = 2.41137e-09, No Iterations 4
DILUPBiCG:  Solving for T, Initial residual = 0.000102129, Final residual = 1.46391e-09, No Iterations 3
DILUPBiCG:  Solving for T, Initial residual = 3.34348e-07, Final residual = 7.66243e-09, No Iterations 1
DILUPBiCG:  Solving for T, Initial residual = 7.13939e-09, Final residual = 7.13939e-09, No Iterations 0
 T goes from min(T) [0 0 0 0 0 0 0] 8.6671e-21 to max(T) [0 0 0 0 0 0 0] 0.953527

ExecutionTime = 13.64 s  ClockTime = 274 s

Time = 0.13
Courant Number mean: 0.74785 max: 1.46869
DILUPBiCG:  Solving for T, Initial residual = 0.013557, Final residual = 2.4137e-09, No Iterations 4
DILUPBiCG:  Solving for T, Initial residual = 0.000102859, Final residual = 1.40318e-09, No Iterations 3
DILUPBiCG:  Solving for T, Initial residual = 3.4226e-07, Final residual = 7.69538e-09, No Iterations 1
DILUPBiCG:  Solving for T, Initial residual = 7.16613e-09, Final residual = 7.16613e-09, No Iterations 0
 T goes from min(T) [0 0 0 0 0 0 0] 8.64799e-21 to max(T) [0 0 0 0 0 0 0] 0.954354

ExecutionTime = 14.16 s  ClockTime = 284 s

Time = 0.14
Courant Number mean: 0.747651 max: 1.46816
DILUPBiCG:  Solving for T, Initial residual = 0.0135622, Final residual = 2.42995e-09, No Iterations 4
DILUPBiCG:  Solving for T, Initial residual = 0.000103592, Final residual = 1.35279e-09, No Iterations 3
DILUPBiCG:  Solving for T, Initial residual = 3.51085e-07, Final residual = 7.73502e-09, No Iterations 1
DILUPBiCG:  Solving for T, Initial residual = 7.20953e-09, Final residual = 7.20953e-09, No Iterations 0
 T goes from min(T) [0 0 0 0 0 0 0] 8.57783e-21 to max(T) [0 0 0 0 0 0 0] 0.953759

ExecutionTime = 14.65 s  ClockTime = 294 s

Time = 0.15
Courant Number mean: 0.747458 max: 1.46759
DILUPBiCG:  Solving for T, Initial residual = 0.0135673, Final residual = 2.47323e-09, No Iterations 4
DILUPBiCG:  Solving for T, Initial residual = 0.000104333, Final residual = 1.3136e-09, No Iterations 3
DILUPBiCG:  Solving for T, Initial residual = 3.60027e-07, Final residual = 7.76584e-09, No Iterations 1
DILUPBiCG:  Solving for T, Initial residual = 7.23474e-09, Final residual = 7.23474e-09, No Iterations 0
 T goes from min(T) [0 0 0 0 0 0 0] 8.68141e-21 to max(T) [0 0 0 0 0 0 0] 0.954287

ExecutionTime = 15.16 s  ClockTime = 303 s

Time = 0.16
Courant Number mean: 0.747217 max: 1.46698
DILUPBiCG:  Solving for T, Initial residual = 0.0135711, Final residual = 2.54806e-09, No Iterations 4
DILUPBiCG:  Solving for T, Initial residual = 0.000105095, Final residual = 1.28473e-09, No Iterations 3
DILUPBiCG:  Solving for T, Initial residual = 3.6969e-07, Final residual = 7.8014e-09, No Iterations 1
DILUPBiCG:  Solving for T, Initial residual = 7.30171e-09, Final residual = 7.30171e-09, No Iterations 0
 T goes from min(T) [0 0 0 0 0 0 0] 8.50118e-21 to max(T) [0 0 0 0 0 0 0] 0.954367

ExecutionTime = 15.66 s  ClockTime = 313 s

Time = 0.17
Courant Number mean: 0.747008 max: 1.46633
DILUPBiCG:  Solving for T, Initial residual = 0.0135754, Final residual = 2.68914e-09, No Iterations 4
DILUPBiCG:  Solving for T, Initial residual = 0.00010585, Final residual = 1.27099e-09, No Iterations 3
DILUPBiCG:  Solving for T, Initial residual = 3.79613e-07, Final residual = 7.83081e-09, No Iterations 1
DILUPBiCG:  Solving for T, Initial residual = 7.33063e-09, Final residual = 7.33063e-09, No Iterations 0
 T goes from min(T) [0 0 0 0 0 0 0] 8.72177e-21 to max(T) [0 0 0 0 0 0 0] 0.953824

ExecutionTime = 16.17 s  ClockTime = 322 s

Time = 0.18
Courant Number mean: 0.746726 max: 1.46565
DILUPBiCG:  Solving for T, Initial residual = 0.0135774, Final residual = 2.91741e-09, No Iterations 4
DILUPBiCG:  Solving for T, Initial residual = 0.000106617, Final residual = 1.27402e-09, No Iterations 3
DILUPBiCG:  Solving for T, Initial residual = 3.90165e-07, Final residual = 7.86421e-09, No Iterations 1
DILUPBiCG:  Solving for T, Initial residual = 7.43193e-09, Final residual = 7.43193e-09, No Iterations 0
 T goes from min(T) [0 0 0 0 0 0 0] 8.43714e-21 to max(T) [0 0 0 0 0 0 0] 0.954546

ExecutionTime = 16.67 s  ClockTime = 332 s

Time = 0.19
Courant Number mean: 0.746501 max: 1.46492
DILUPBiCG:  Solving for T, Initial residual = 0.0135806, Final residual = 3.34707e-09, No Iterations 4
DILUPBiCG:  Solving for T, Initial residual = 0.00010739, Final residual = 1.30784e-09, No Iterations 3
DILUPBiCG:  Solving for T, Initial residual = 4.01239e-07, Final residual = 7.89496e-09, No Iterations 1
DILUPBiCG:  Solving for T, Initial residual = 7.4743e-09, Final residual = 7.4743e-09, No Iterations 0
 T goes from min(T) [0 0 0 0 0 0 0] 8.76955e-21 to max(T) [0 0 0 0 0 0 0] 0.954072

ExecutionTime = 17.2 s  ClockTime = 342 s

Time = 0.2
Courant Number mean: 0.746178 max: 1.46415
DILUPBiCG:  Solving for T, Initial residual = 0.0135824, Final residual = 4.01347e-09, No Iterations 4
DILUPBiCG:  Solving for T, Initial residual = 0.00010817, Final residual = 1.39216e-09, No Iterations 3
DILUPBiCG:  Solving for T, Initial residual = 4.12665e-07, Final residual = 7.92702e-09, No Iterations 1
DILUPBiCG:  Solving for T, Initial residual = 7.62262e-09, Final residual = 7.62262e-09, No Iterations 0
 T goes from min(T) [0 0 0 0 0 0 0] 8.38542e-21 to max(T) [0 0 0 0 0 0 0] 0.954374

ExecutionTime = 17.7 s  ClockTime = 352 s

Time = 0.21
Courant Number mean: 0.745937 max: 1.46335
DILUPBiCG:  Solving for T, Initial residual = 0.0135843, Final residual = 7.57016e-09, No Iterations 4
DILUPBiCG:  Solving for T, Initial residual = 0.00010895, Final residual = 1.60291e-09, No Iterations 3
DILUPBiCG:  Solving for T, Initial residual = 4.24821e-07, Final residual = 7.95821e-09, No Iterations 1
DILUPBiCG:  Solving for T, Initial residual = 7.70729e-09, Final residual = 7.70729e-09, No Iterations 0
 T goes from min(T) [0 0 0 0 0 0 0] 8.8249e-21 to max(T) [0 0 0 0 0 0 0] 0.95454

ExecutionTime = 18.2 s  ClockTime = 361 s

Time = 0.22
Courant Number mean: 0.745573 max: 1.4625
DILUPBiCG:  Solving for T, Initial residual = 0.0135847, Final residual = 7.63533e-09, No Iterations 4
DILUPBiCG:  Solving for T, Initial residual = 0.000109756, Final residual = 2.27601e-09, No Iterations 3
DILUPBiCG:  Solving for T, Initial residual = 4.37641e-07, Final residual = 7.99919e-09, No Iterations 1
DILUPBiCG:  Solving for T, Initial residual = 7.93049e-09, Final residual = 7.93049e-09, No Iterations 0
 T goes from min(T) [0 0 0 0 0 0 0] 8.34557e-21 to max(T) [0 0 0 0 0 0 0] 0.953923

ExecutionTime = 18.72 s  ClockTime = 370 s

Time = 0.23
Courant Number mean: 0.745317 max: 1.46162
DILUPBiCG:  Solving for T, Initial residual = 0.0135867, Final residual = 2.83455e-09, No Iterations 4
DILUPBiCG:  Solving for T, Initial residual = 0.000110555, Final residual = 4.02713e-11, No Iterations 4
DILUPBiCG:  Solving for T, Initial residual = 4.49683e-07, Final residual = 8.02125e-09, No Iterations 1
DILUPBiCG:  Solving for T, Initial residual = 8.0777e-09, Final residual = 8.0777e-09, No Iterations 0
 T goes from min(T) [0 0 0 0 0 0 0] 8.8878e-21 to max(T) [0 0 0 0 0 0 0] 0.954665

ExecutionTime = 19.22 s  ClockTime = 379 s

Time = 0.24
Courant Number mean: 0.74491 max: 1.46069
DILUPBiCG:  Solving for T, Initial residual = 0.0135865, Final residual = 1.46093e-09, No Iterations 4
DILUPBiCG:  Solving for T, Initial residual = 0.000111385, Final residual = 1.45837e-09, No Iterations 3
DILUPBiCG:  Solving for T, Initial residual = 4.63131e-07, Final residual = 8.05494e-09, No Iterations 1
DILUPBiCG:  Solving for T, Initial residual = 8.38534e-09, Final residual = 8.38534e-09, No Iterations 0
 T goes from min(T) [0 0 0 0 0 0 0] 8.3171e-21 to max(T) [0 0 0 0 0 0 0] 0.954238

ExecutionTime = 19.74 s  ClockTime = 387 s

Time = 0.25
Courant Number mean: 0.744639 max: 1.45973
DILUPBiCG:  Solving for T, Initial residual = 0.0135881, Final residual = 9.03597e-10, No Iterations 4
DILUPBiCG:  Solving for T, Initial residual = 0.00011221, Final residual = 7.85507e-10, No Iterations 3
DILUPBiCG:  Solving for T, Initial residual = 4.76846e-07, Final residual = 8.09291e-09, No Iterations 1
DILUPBiCG:  Solving for T, Initial residual = 8.59074e-09, Final residual = 8.59074e-09, No Iterations 0
 T goes from min(T) [0 0 0 0 0 0 0] 8.95809e-21 to max(T) [0 0 0 0 0 0 0] 0.95449

ExecutionTime = 20.23 s  ClockTime = 395 s

Time = 0.26
Courant Number mean: 0.744203 max: 1.45874
DILUPBiCG:  Solving for T, Initial residual = 0.0135882, Final residual = 6.27141e-10, No Iterations 4
DILUPBiCG:  Solving for T, Initial residual = 0.000113088, Final residual = 5.82644e-10, No Iterations 3
DILUPBiCG:  Solving for T, Initial residual = 4.92067e-07, Final residual = 8.15113e-09, No Iterations 1
DILUPBiCG:  Solving for T, Initial residual = 9.00194e-09, Final residual = 9.00194e-09, No Iterations 0
 T goes from min(T) [0 0 0 0 0 0 0] 8.29944e-21 to max(T) [0 0 0 0 0 0 0] 0.954506

ExecutionTime = 20.72 s  ClockTime = 402 s

Time = 0.27
Courant Number mean: 0.743906 max: 1.45772
DILUPBiCG:  Solving for T, Initial residual = 0.0135903, Final residual = 4.85867e-10, No Iterations 4
DILUPBiCG:  Solving for T, Initial residual = 0.000113942, Final residual = 4.89666e-10, No Iterations 3
DILUPBiCG:  Solving for T, Initial residual = 5.06698e-07, Final residual = 8.19531e-09, No Iterations 1
DILUPBiCG:  Solving for T, Initial residual = 9.24896e-09, Final residual = 9.24896e-09, No Iterations 0
 T goes from min(T) [0 0 0 0 0 0 0] 9.03555e-21 to max(T) [0 0 0 0 0 0 0] 0.954033

ExecutionTime = 21.26 s  ClockTime = 410 s

Time = 0.28
Courant Number mean: 0.743454 max: 1.45665
DILUPBiCG:  Solving for T, Initial residual = 0.0135914, Final residual = 4.25681e-10, No Iterations 4
DILUPBiCG:  Solving for T, Initial residual = 0.000114835, Final residual = 4.30157e-10, No Iterations 3
DILUPBiCG:  Solving for T, Initial residual = 5.22619e-07, Final residual = 8.26261e-09, No Iterations 1
DILUPBiCG:  Solving for T, Initial residual = 9.73652e-09, Final residual = 9.73652e-09, No Iterations 0
 T goes from min(T) [0 0 0 0 0 0 0] 8.29204e-21 to max(T) [0 0 0 0 0 0 0] 0.954349

ExecutionTime = 21.78 s  ClockTime = 418 s

Time = 0.29
Courant Number mean: 0.743116 max: 1.45555
DILUPBiCG:  Solving for T, Initial residual = 0.0135933, Final residual = 4.13626e-10, No Iterations 4
DILUPBiCG:  Solving for T, Initial residual = 0.000115728, Final residual = 3.90803e-10, No Iterations 3
DILUPBiCG:  Solving for T, Initial residual = 5.38603e-07, Final residual = 8.32157e-09, No Iterations 1
DILUPBiCG:  Solving for T, Initial residual = 1.00495e-08, Final residual = 3.73118e-10, No Iterations 1
 T goes from min(T) [0 0 0 0 0 0 0] 9.10097e-21 to max(T) [0 0 0 0 0 0 0] 0.953319

ExecutionTime = 22.29 s  ClockTime = 425 s

Time = 0.3
Courant Number mean: 0.74265 max: 1.45441
DILUPBiCG:  Solving for T, Initial residual = 0.013597, Final residual = 4.26594e-10, No Iterations 4
DILUPBiCG:  Solving for T, Initial residual = 0.000116671, Final residual = 3.59486e-10, No Iterations 3
DILUPBiCG:  Solving for T, Initial residual = 5.55759e-07, Final residual = 8.40333e-09, No Iterations 1
DILUPBiCG:  Solving for T, Initial residual = 1.05889e-08, Final residual = 3.82948e-10, No Iterations 1
 T goes from min(T) [0 0 0 0 0 0 0] 8.29299e-21 to max(T) [0 0 0 0 0 0 0] 0.95432

ExecutionTime = 22.81 s  ClockTime = 433 s

Time = 0.31
Courant Number mean: 0.742271 max: 1.45322
DILUPBiCG:  Solving for T, Initial residual = 0.0135997, Final residual = 4.49181e-10, No Iterations 4
DILUPBiCG:  Solving for T, Initial residual = 0.000117637, Final residual = 3.374e-10, No Iterations 3
DILUPBiCG:  Solving for T, Initial residual = 5.72902e-07, Final residual = 8.48624e-09, No Iterations 1
DILUPBiCG:  Solving for T, Initial residual = 1.09772e-08, Final residual = 3.89704e-10, No Iterations 1
 T goes from min(T) [0 0 0 0 0 0 0] 9.00603e-21 to max(T) [0 0 0 0 0 0 0] 0.953901

ExecutionTime = 23.34 s  ClockTime = 441 s

Time = 0.32
Courant Number mean: 0.74179 max: 1.452
DILUPBiCG:  Solving for T, Initial residual = 0.0136054, Final residual = 4.74101e-10, No Iterations 4
DILUPBiCG:  Solving for T, Initial residual = 0.000118655, Final residual = 3.2967e-10, No Iterations 3
DILUPBiCG:  Solving for T, Initial residual = 5.91529e-07, Final residual = 8.59277e-09, No Iterations 1
DILUPBiCG:  Solving for T, Initial residual = 1.15922e-08, Final residual = 4.01624e-10, No Iterations 1
 T goes from min(T) [0 0 0 0 0 0 0] 8.30317e-21 to max(T) [0 0 0 0 0 0 0] 0.954745

ExecutionTime = 23.89 s  ClockTime = 450 s

Time = 0.33
Courant Number mean: 0.74137 max: 1.45074
DILUPBiCG:  Solving for T, Initial residual = 0.0136097, Final residual = 4.97249e-10, No Iterations 4
DILUPBiCG:  Solving for T, Initial residual = 0.000119716, Final residual = 3.27725e-10, No Iterations 3
DILUPBiCG:  Solving for T, Initial residual = 6.10469e-07, Final residual = 8.70737e-09, No Iterations 1
DILUPBiCG:  Solving for T, Initial residual = 1.207e-08, Final residual = 4.10959e-10, No Iterations 1
 T goes from min(T) [0 0 0 0 0 0 0] 8.92409e-21 to max(T) [0 0 0 0 0 0 0] 0.954251

ExecutionTime = 24.4 s  ClockTime = 457 s

Time = 0.34
Courant Number mean: 0.740875 max: 1.44944
DILUPBiCG:  Solving for T, Initial residual = 0.0136163, Final residual = 5.19384e-10, No Iterations 4
DILUPBiCG:  Solving for T, Initial residual = 0.000120803, Final residual = 3.25048e-10, No Iterations 3
DILUPBiCG:  Solving for T, Initial residual = 6.30044e-07, Final residual = 8.83936e-09, No Iterations 1
DILUPBiCG:  Solving for T, Initial residual = 1.27608e-08, Final residual = 4.24754e-10, No Iterations 1
 T goes from min(T) [0 0 0 0 0 0 0] 8.32205e-21 to max(T) [0 0 0 0 0 0 0] 0.954644

ExecutionTime = 24.9 s  ClockTime = 465 s

Time = 0.35
Courant Number mean: 0.740414 max: 1.4481
DILUPBiCG:  Solving for T, Initial residual = 0.0136252, Final residual = 5.40045e-10, No Iterations 4
DILUPBiCG:  Solving for T, Initial residual = 0.000121953, Final residual = 3.21123e-10, No Iterations 3
DILUPBiCG:  Solving for T, Initial residual = 6.50819e-07, Final residual = 8.98644e-09, No Iterations 1
DILUPBiCG:  Solving for T, Initial residual = 1.33184e-08, Final residual = 4.36525e-10, No Iterations 1
 T goes from min(T) [0 0 0 0 0 0 0] 8.85428e-21 to max(T) [0 0 0 0 0 0 0] 0.953715

ExecutionTime = 25.42 s  ClockTime = 472 s

Time = 0.36
Courant Number mean: 0.739905 max: 1.44673
DILUPBiCG:  Solving for T, Initial residual = 0.0136342, Final residual = 5.60244e-10, No Iterations 4
DILUPBiCG:  Solving for T, Initial residual = 0.000123119, Final residual = 3.17021e-10, No Iterations 3
DILUPBiCG:  Solving for T, Initial residual = 6.72215e-07, Final residual = 9.15536e-09, No Iterations 1
DILUPBiCG:  Solving for T, Initial residual = 1.40872e-08, Final residual = 4.51532e-10, No Iterations 1
 T goes from min(T) [0 0 0 0 0 0 0] 8.34912e-21 to max(T) [0 0 0 0 0 0 0] 0.954261

ExecutionTime = 25.92 s  ClockTime = 480 s

Time = 0.37
Courant Number mean: 0.739404 max: 1.44531
DILUPBiCG:  Solving for T, Initial residual = 0.0136452, Final residual = 5.81287e-10, No Iterations 4
DILUPBiCG:  Solving for T, Initial residual = 0.000124335, Final residual = 3.13147e-10, No Iterations 3
DILUPBiCG:  Solving for T, Initial residual = 6.94848e-07, Final residual = 9.35243e-09, No Iterations 1
DILUPBiCG:  Solving for T, Initial residual = 1.47495e-08, Final residual = 4.64993e-10, No Iterations 1
 T goes from min(T) [0 0 0 0 0 0 0] 8.7958e-21 to max(T) [0 0 0 0 0 0 0] 0.954349

ExecutionTime = 26.46 s  ClockTime = 488 s

Time = 0.38
Courant Number mean: 0.738882 max: 1.44385
DILUPBiCG:  Solving for T, Initial residual = 0.0136588, Final residual = 6.02336e-10, No Iterations 4
DILUPBiCG:  Solving for T, Initial residual = 0.000125621, Final residual = 3.09845e-10, No Iterations 3
DILUPBiCG:  Solving for T, Initial residual = 7.18099e-07, Final residual = 9.57051e-09, No Iterations 1
DILUPBiCG:  Solving for T, Initial residual = 1.55557e-08, Final residual = 4.80421e-10, No Iterations 1
 T goes from min(T) [0 0 0 0 0 0 0] 8.3839e-21 to max(T) [0 0 0 0 0 0 0] 0.954759

ExecutionTime = 26.99 s  ClockTime = 496 s

Time = 0.39
Courant Number mean: 0.73834 max: 1.44236
DILUPBiCG:  Solving for T, Initial residual = 0.0136736, Final residual = 6.26709e-10, No Iterations 4
DILUPBiCG:  Solving for T, Initial residual = 0.000126892, Final residual = 3.0738e-10, No Iterations 3
DILUPBiCG:  Solving for T, Initial residual = 7.42764e-07, Final residual = 9.81876e-09, No Iterations 1
DILUPBiCG:  Solving for T, Initial residual = 1.63482e-08, Final residual = 4.95377e-10, No Iterations 1
 T goes from min(T) [0 0 0 0 0 0 0] 8.7479e-21 to max(T) [0 0 0 0 0 0 0] 0.95374

ExecutionTime = 27.51 s  ClockTime = 504 s

Time = 0.4
Courant Number mean: 0.737805 max: 1.44083
DILUPBiCG:  Solving for T, Initial residual = 0.0136956, Final residual = 6.52453e-10, No Iterations 4
DILUPBiCG:  Solving for T, Initial residual = 0.000128269, Final residual = 3.05916e-10, No Iterations 3
DILUPBiCG:  Solving for T, Initial residual = 7.6842e-07, Final residual = 5.36674e-10, No Iterations 2
DILUPBiCG:  Solving for T, Initial residual = 1.40093e-08, Final residual = 1.578e-10, No Iterations 1
 T goes from min(T) [0 0 0 0 0 0 0] 8.42591e-21 to max(T) [0 0 0 0 0 0 0] 0.954181

ExecutionTime = 28.04 s  ClockTime = 512 s

Time = 0.41
Courant Number mean: 0.737224 max: 1.43926
DILUPBiCG:  Solving for T, Initial residual = 0.0137145, Final residual = 6.84866e-10, No Iterations 4
DILUPBiCG:  Solving for T, Initial residual = 0.000129637, Final residual = 3.05928e-10, No Iterations 3
DILUPBiCG:  Solving for T, Initial residual = 7.95498e-07, Final residual = 5.39563e-10, No Iterations 2
DILUPBiCG:  Solving for T, Initial residual = 1.47474e-08, Final residual = 1.69994e-10, No Iterations 1
 T goes from min(T) [0 0 0 0 0 0 0] 8.70985e-21 to max(T) [0 0 0 0 0 0 0] 0.954048

ExecutionTime = 28.6 s  ClockTime = 520 s

Time = 0.42
Courant Number mean: 0.736675 max: 1.43765
DILUPBiCG:  Solving for T, Initial residual = 0.0137423, Final residual = 7.20707e-10, No Iterations 4
DILUPBiCG:  Solving for T, Initial residual = 0.000131036, Final residual = 3.06867e-10, No Iterations 3
DILUPBiCG:  Solving for T, Initial residual = 8.24388e-07, Final residual = 5.43939e-10, No Iterations 2
DILUPBiCG:  Solving for T, Initial residual = 1.55291e-08, Final residual = 1.83817e-10, No Iterations 1
 T goes from min(T) [0 0 0 0 0 0 0] 8.47472e-21 to max(T) [0 0 0 0 0 0 0] 0.954773

ExecutionTime = 29.18 s  ClockTime = 529 s

Time = 0.43
Courant Number mean: 0.736055 max: 1.436
DILUPBiCG:  Solving for T, Initial residual = 0.0137693, Final residual = 7.68077e-10, No Iterations 4
DILUPBiCG:  Solving for T, Initial residual = 0.000132521, Final residual = 3.09404e-10, No Iterations 3
DILUPBiCG:  Solving for T, Initial residual = 8.55041e-07, Final residual = 5.50547e-10, No Iterations 2
DILUPBiCG:  Solving for T, Initial residual = 1.64223e-08, Final residual = 1.99939e-10, No Iterations 1
 T goes from min(T) [0 0 0 0 0 0 0] 8.68103e-21 to max(T) [0 0 0 0 0 0 0] 0.953818

ExecutionTime = 29.69 s  ClockTime = 537 s

Time = 0.44
Courant Number mean: 0.735492 max: 1.43431
DILUPBiCG:  Solving for T, Initial residual = 0.0138013, Final residual = 8.19962e-10, No Iterations 4
DILUPBiCG:  Solving for T, Initial residual = 0.000134053, Final residual = 3.13066e-10, No Iterations 3
DILUPBiCG:  Solving for T, Initial residual = 8.85998e-07, Final residual = 5.58471e-10, No Iterations 2
DILUPBiCG:  Solving for T, Initial residual = 1.72718e-08, Final residual = 2.1689e-10, No Iterations 1
 T goes from min(T) [0 0 0 0 0 0 0] 8.52994e-21 to max(T) [0 0 0 0 0 0 0] 0.954632

ExecutionTime = 30.21 s  ClockTime = 544 s

Time = 0.45
Courant Number mean: 0.734834 max: 1.43259
DILUPBiCG:  Solving for T, Initial residual = 0.0138361, Final residual = 8.86543e-10, No Iterations 4
DILUPBiCG:  Solving for T, Initial residual = 0.000135585, Final residual = 3.17835e-10, No Iterations 3
DILUPBiCG:  Solving for T, Initial residual = 9.19795e-07, Final residual = 5.69633e-10, No Iterations 2
DILUPBiCG:  Solving for T, Initial residual = 1.83748e-08, Final residual = 2.37738e-10, No Iterations 1
 T goes from min(T) [0 0 0 0 0 0 0] 8.66083e-21 to max(T) [0 0 0 0 0 0 0] 0.954096

ExecutionTime = 30.71 s  ClockTime = 552 s

Time = 0.46
Courant Number mean: 0.734256 max: 1.43082
DILUPBiCG:  Solving for T, Initial residual = 0.0138778, Final residual = 9.53445e-10, No Iterations 4
DILUPBiCG:  Solving for T, Initial residual = 0.000137199, Final residual = 3.23197e-10, No Iterations 3
DILUPBiCG:  Solving for T, Initial residual = 9.55222e-07, Final residual = 5.82559e-10, No Iterations 2
DILUPBiCG:  Solving for T, Initial residual = 1.93069e-08, Final residual = 2.58455e-10, No Iterations 1
 T goes from min(T) [0 0 0 0 0 0 0] 8.59119e-21 to max(T) [0 0 0 0 0 0 0] 0.954105

ExecutionTime = 31.22 s  ClockTime = 559 s

Time = 0.47
Courant Number mean: 0.73356 max: 1.42902
DILUPBiCG:  Solving for T, Initial residual = 0.0139145, Final residual = 1.03531e-09, No Iterations 4
DILUPBiCG:  Solving for T, Initial residual = 0.000138834, Final residual = 3.29184e-10, No Iterations 3
DILUPBiCG:  Solving for T, Initial residual = 9.92322e-07, Final residual = 5.9893e-10, No Iterations 2
DILUPBiCG:  Solving for T, Initial residual = 2.06614e-08, Final residual = 2.85003e-10, No Iterations 1
 T goes from min(T) [0 0 0 0 0 0 0] 8.64869e-21 to max(T) [0 0 0 0 0 0 0] 0.954051

ExecutionTime = 31.79 s  ClockTime = 568 s

Time = 0.48
Courant Number mean: 0.732968 max: 1.42718
DILUPBiCG:  Solving for T, Initial residual = 0.0139619, Final residual = 1.11289e-09, No Iterations 4
DILUPBiCG:  Solving for T, Initial residual = 0.00014049, Final residual = 3.35003e-10, No Iterations 3
DILUPBiCG:  Solving for T, Initial residual = 1.03109e-06, Final residual = 6.17363e-10, No Iterations 2
DILUPBiCG:  Solving for T, Initial residual = 2.16997e-08, Final residual = 3.10314e-10, No Iterations 1
 T goes from min(T) [0 0 0 0 0 0 0] 8.6581e-21 to max(T) [0 0 0 0 0 0 0] 0.953654

ExecutionTime = 32.41 s  ClockTime = 577 s

Time = 0.49
Courant Number mean: 0.732233 max: 1.42531
DILUPBiCG:  Solving for T, Initial residual = 0.0140052, Final residual = 1.20648e-09, No Iterations 4
DILUPBiCG:  Solving for T, Initial residual = 0.000142243, Final residual = 3.61519e-10, No Iterations 3
DILUPBiCG:  Solving for T, Initial residual = 1.07253e-06, Final residual = 6.41499e-10, No Iterations 2
DILUPBiCG:  Solving for T, Initial residual = 2.33263e-08, Final residual = 3.43776e-10, No Iterations 1
 T goes from min(T) [0 0 0 0 0 0 0] 8.64408e-21 to max(T) [0 0 0 0 0 0 0] 0.954199

ExecutionTime = 32.93 s  ClockTime = 585 s

Time = 0.5
Courant Number mean: 0.73163 max: 1.42339
DILUPBiCG:  Solving for T, Initial residual = 0.014052, Final residual = 1.29795e-09, No Iterations 4
DILUPBiCG:  Solving for T, Initial residual = 0.000144062, Final residual = 4.72799e-10, No Iterations 3
DILUPBiCG:  Solving for T, Initial residual = 1.11598e-06, Final residual = 6.71461e-10, No Iterations 2
DILUPBiCG:  Solving for T, Initial residual = 2.44782e-08, Final residual = 3.73906e-10, No Iterations 1
 T goes from min(T) [0 0 0 0 0 0 0] 8.73037e-21 to max(T) [0 0 0 0 0 0 0] 0.953255

ExecutionTime = 33.43 s  ClockTime = 593 s

Time = 0.51
Courant Number mean: 0.730866 max: 1.42145
DILUPBiCG:  Solving for T, Initial residual = 0.0141048, Final residual = 1.4122e-09, No Iterations 4
DILUPBiCG:  Solving for T, Initial residual = 0.000145837, Final residual = 9.33528e-10, No Iterations 3
DILUPBiCG:  Solving for T, Initial residual = 1.16205e-06, Final residual = 7.20386e-10, No Iterations 2
DILUPBiCG:  Solving for T, Initial residual = 2.64078e-08, Final residual = 4.14788e-10, No Iterations 1
 T goes from min(T) [0 0 0 0 0 0 0] 8.64652e-21 to max(T) [0 0 0 0 0 0 0] 0.954017

ExecutionTime = 33.96 s  ClockTime = 601 s

Time = 0.52
Courant Number mean: 0.73024 max: 1.41948
DILUPBiCG:  Solving for T, Initial residual = 0.0141581, Final residual = 1.52855e-09, No Iterations 4
DILUPBiCG:  Solving for T, Initial residual = 0.000147693, Final residual = 1.32535e-11, No Iterations 4
DILUPBiCG:  Solving for T, Initial residual = 1.21e-06, Final residual = 8.6567e-10, No Iterations 2
DILUPBiCG:  Solving for T, Initial residual = 2.77247e-08, Final residual = 4.50119e-10, No Iterations 1
 T goes from min(T) [0 0 0 0 0 0 0] 8.80767e-21 to max(T) [0 0 0 0 0 0 0] 0.953862

ExecutionTime = 34.46 s  ClockTime = 608 s

Time = 0.53
Courant Number mean: 0.729464 max: 1.41747
DILUPBiCG:  Solving for T, Initial residual = 0.0142121, Final residual = 1.67956e-09, No Iterations 4
DILUPBiCG:  Solving for T, Initial residual = 0.000149648, Final residual = 1.72065e-09, No Iterations 3
DILUPBiCG:  Solving for T, Initial residual = 1.26067e-06, Final residual = 4.84114e-10, No Iterations 2
DILUPBiCG:  Solving for T, Initial residual = 3.0003e-08, Final residual = 5.05718e-10, No Iterations 1
 T goes from min(T) [0 0 0 0 0 0 0] 8.65555e-21 to max(T) [0 0 0 0 0 0 0] 0.953464

ExecutionTime = 34.97 s  ClockTime = 616 s

Time = 0.54
Courant Number mean: 0.728799 max: 1.41542
DILUPBiCG:  Solving for T, Initial residual = 0.0142658, Final residual = 1.84134e-09, No Iterations 4
DILUPBiCG:  Solving for T, Initial residual = 0.000151644, Final residual = 1.09782e-09, No Iterations 3
DILUPBiCG:  Solving for T, Initial residual = 1.31308e-06, Final residual = 6.58368e-10, No Iterations 2
DILUPBiCG:  Solving for T, Initial residual = 3.1575e-08, Final residual = 5.47575e-10, No Iterations 1
 T goes from min(T) [0 0 0 0 0 0 0] 8.88974e-21 to max(T) [0 0 0 0 0 0 0] 0.95422

ExecutionTime = 35.47 s  ClockTime = 623 s

Time = 0.55
Courant Number mean: 0.72801 max: 1.41333
DILUPBiCG:  Solving for T, Initial residual = 0.0143261, Final residual = 2.04751e-09, No Iterations 4
DILUPBiCG:  Solving for T, Initial residual = 0.00015362, Final residual = 9.65304e-10, No Iterations 3
DILUPBiCG:  Solving for T, Initial residual = 1.36989e-06, Final residual = 7.18474e-10, No Iterations 2
DILUPBiCG:  Solving for T, Initial residual = 3.40685e-08, Final residual = 6.05943e-10, No Iterations 1
 T goes from min(T) [0 0 0 0 0 0 0] 8.67076e-21 to max(T) [0 0 0 0 0 0 0] 0.953448

ExecutionTime = 36.05 s  ClockTime = 632 s

Time = 0.56
Courant Number mean: 0.727308 max: 1.41121
DILUPBiCG:  Solving for T, Initial residual = 0.0143884, Final residual = 2.27166e-09, No Iterations 4
DILUPBiCG:  Solving for T, Initial residual = 0.000155694, Final residual = 9.39913e-10, No Iterations 3
DILUPBiCG:  Solving for T, Initial residual = 1.42909e-06, Final residual = 7.65067e-10, No Iterations 2
DILUPBiCG:  Solving for T, Initial residual = 3.60292e-08, Final residual = 6.61011e-10, No Iterations 1
 T goes from min(T) [0 0 0 0 0 0 0] 8.97633e-21 to max(T) [0 0 0 0 0 0 0] 0.953826

ExecutionTime = 36.65 s  ClockTime = 641 s

Time = 0.57
Courant Number mean: 0.726508 max: 1.40904
DILUPBiCG:  Solving for T, Initial residual = 0.0144446, Final residual = 2.55413e-09, No Iterations 4
DILUPBiCG:  Solving for T, Initial residual = 0.000157824, Final residual = 9.55994e-10, No Iterations 3
DILUPBiCG:  Solving for T, Initial residual = 1.4914e-06, Final residual = 8.07739e-10, No Iterations 2
DILUPBiCG:  Solving for T, Initial residual = 3.87935e-08, Final residual = 7.30831e-10, No Iterations 1
 T goes from min(T) [0 0 0 0 0 0 0] 8.69176e-21 to max(T) [0 0 0 0 0 0 0] 0.954304

ExecutionTime = 37.17 s  ClockTime = 649 s

Time = 0.58
Courant Number mean: 0.725767 max: 1.40684
DILUPBiCG:  Solving for T, Initial residual = 0.014511, Final residual = 2.85103e-09, No Iterations 4
DILUPBiCG:  Solving for T, Initial residual = 0.000160028, Final residual = 9.96428e-10, No Iterations 3
DILUPBiCG:  Solving for T, Initial residual = 1.55564e-06, Final residual = 8.50775e-10, No Iterations 2
DILUPBiCG:  Solving for T, Initial residual = 4.11781e-08, Final residual = 7.98915e-10, No Iterations 1
 T goes from min(T) [0 0 0 0 0 0 0] 9.06718e-21 to max(T) [0 0 0 0 0 0 0] 0.953337

ExecutionTime = 37.69 s  ClockTime = 657 s

Time = 0.59
Courant Number mean: 0.724958 max: 1.40461
DILUPBiCG:  Solving for T, Initial residual = 0.014577, Final residual = 3.19265e-09, No Iterations 4
DILUPBiCG:  Solving for T, Initial residual = 0.000162204, Final residual = 1.05773e-09, No Iterations 3
DILUPBiCG:  Solving for T, Initial residual = 1.6246e-06, Final residual = 8.93452e-10, No Iterations 2
DILUPBiCG:  Solving for T, Initial residual = 4.43465e-08, Final residual = 8.83479e-10, No Iterations 1
 T goes from min(T) [0 0 0 0 0 0 0] 8.71819e-21 to max(T) [0 0 0 0 0 0 0] 0.953407

ExecutionTime = 38.2 s  ClockTime = 664 s

Time = 0.6
Courant Number mean: 0.724178 max: 1.40233
DILUPBiCG:  Solving for T, Initial residual = 0.0146416, Final residual = 3.52793e-09, No Iterations 4
DILUPBiCG:  Solving for T, Initial residual = 0.000164493, Final residual = 1.13468e-09, No Iterations 3
DILUPBiCG:  Solving for T, Initial residual = 1.69785e-06, Final residual = 9.40005e-10, No Iterations 2
DILUPBiCG:  Solving for T, Initial residual = 4.7201e-08, Final residual = 9.67284e-10, No Iterations 1
 T goes from min(T) [0 0 0 0 0 0 0] 9.16209e-21 to max(T) [0 0 0 0 0 0 0] 0.953786

ExecutionTime = 38.72 s  ClockTime = 672 s

Time = 0.61
Courant Number mean: 0.723358 max: 1.40002
DILUPBiCG:  Solving for T, Initial residual = 0.0147099, Final residual = 3.87757e-09, No Iterations 4
DILUPBiCG:  Solving for T, Initial residual = 0.000166843, Final residual = 1.22937e-09, No Iterations 3
DILUPBiCG:  Solving for T, Initial residual = 1.77406e-06, Final residual = 9.89647e-10, No Iterations 2
DILUPBiCG:  Solving for T, Initial residual = 5.06866e-08, Final residual = 1.06731e-09, No Iterations 1
 T goes from min(T) [0 0 0 0 0 0 0] 8.74972e-21 to max(T) [0 0 0 0 0 0 0] 0.952952

ExecutionTime = 39.23 s  ClockTime = 680 s

Time = 0.62
Courant Number mean: 0.722543 max: 1.39767
DILUPBiCG:  Solving for T, Initial residual = 0.0147829, Final residual = 4.20839e-09, No Iterations 4
DILUPBiCG:  Solving for T, Initial residual = 0.000169242, Final residual = 1.3403e-09, No Iterations 3
DILUPBiCG:  Solving for T, Initial residual = 1.8526e-06, Final residual = 1.04092e-09, No Iterations 2
DILUPBiCG:  Solving for T, Initial residual = 5.40262e-08, Final residual = 1.16785e-09, No Iterations 1
 T goes from min(T) [0 0 0 0 0 0 0] 9.26086e-21 to max(T) [0 0 0 0 0 0 0] 0.95304

ExecutionTime = 39.78 s  ClockTime = 688 s

Time = 0.63
Courant Number mean: 0.721711 max: 1.39529
DILUPBiCG:  Solving for T, Initial residual = 0.0148528, Final residual = 4.5407e-09, No Iterations 4
DILUPBiCG:  Solving for T, Initial residual = 0.000171616, Final residual = 1.46534e-09, No Iterations 3
DILUPBiCG:  Solving for T, Initial residual = 1.93586e-06, Final residual = 1.09669e-09, No Iterations 2
DILUPBiCG:  Solving for T, Initial residual = 5.80095e-08, Final residual = 1.28399e-09, No Iterations 1
 T goes from min(T) [0 0 0 0 0 0 0] 8.78603e-21 to max(T) [0 0 0 0 0 0 0] 0.953851

ExecutionTime = 40.31 s  ClockTime = 696 s

Time = 0.64
Courant Number mean: 0.720861 max: 1.39287
DILUPBiCG:  Solving for T, Initial residual = 0.0149259, Final residual = 4.9331e-09, No Iterations 4
DILUPBiCG:  Solving for T, Initial residual = 0.000174102, Final residual = 1.59625e-09, No Iterations 3
DILUPBiCG:  Solving for T, Initial residual = 2.02474e-06, Final residual = 1.16496e-09, No Iterations 2
DILUPBiCG:  Solving for T, Initial residual = 6.19596e-08, Final residual = 1.39916e-09, No Iterations 1
 T goes from min(T) [0 0 0 0 0 0 0] 9.3633e-21 to max(T) [0 0 0 0 0 0 0] 0.953198

ExecutionTime = 40.82 s  ClockTime = 704 s

Time = 0.65
Courant Number mean: 0.720019 max: 1.39041
DILUPBiCG:  Solving for T, Initial residual = 0.0150013, Final residual = 5.48335e-09, No Iterations 4
DILUPBiCG:  Solving for T, Initial residual = 0.000176736, Final residual = 1.71627e-09, No Iterations 3
DILUPBiCG:  Solving for T, Initial residual = 2.11616e-06, Final residual = 1.2448e-09, No Iterations 2
DILUPBiCG:  Solving for T, Initial residual = 6.62575e-08, Final residual = 1.52285e-09, No Iterations 1
 T goes from min(T) [0 0 0 0 0 0 0] 8.82685e-21 to max(T) [0 0 0 0 0 0 0] 0.951797

ExecutionTime = 41.33 s  ClockTime = 711 s

Time = 0.66
Courant Number mean: 0.719134 max: 1.38791
DILUPBiCG:  Solving for T, Initial residual = 0.0150784, Final residual = 6.34692e-09, No Iterations 4
DILUPBiCG:  Solving for T, Initial residual = 0.000179384, Final residual = 1.79122e-09, No Iterations 3
DILUPBiCG:  Solving for T, Initial residual = 2.21213e-06, Final residual = 1.33895e-09, No Iterations 2
DILUPBiCG:  Solving for T, Initial residual = 7.0877e-08, Final residual = 1.66468e-09, No Iterations 1
 T goes from min(T) [0 0 0 0 0 0 0] 9.46926e-21 to max(T) [0 0 0 0 0 0 0] 0.95337

ExecutionTime = 41.86 s  ClockTime = 719 s

Time = 0.67
Courant Number mean: 0.718283 max: 1.38538
DILUPBiCG:  Solving for T, Initial residual = 0.0151568, Final residual = 7.51026e-09, No Iterations 4
DILUPBiCG:  Solving for T, Initial residual = 0.000182018, Final residual = 1.79509e-09, No Iterations 3
DILUPBiCG:  Solving for T, Initial residual = 2.31268e-06, Final residual = 1.44582e-09, No Iterations 2
DILUPBiCG:  Solving for T, Initial residual = 7.57084e-08, Final residual = 1.82498e-09, No Iterations 1
 T goes from min(T) [0 0 0 0 0 0 0] 8.87191e-21 to max(T) [0 0 0 0 0 0 0] 0.953365

ExecutionTime = 42.39 s  ClockTime = 727 s

Time = 0.68
Courant Number mean: 0.717364 max: 1.38281
DILUPBiCG:  Solving for T, Initial residual = 0.0152404, Final residual = 8.9723e-09, No Iterations 4
DILUPBiCG:  Solving for T, Initial residual = 0.00018473, Final residual = 1.75615e-09, No Iterations 3
DILUPBiCG:  Solving for T, Initial residual = 2.41908e-06, Final residual = 1.56732e-09, No Iterations 2
DILUPBiCG:  Solving for T, Initial residual = 8.1142e-08, Final residual = 2.01032e-09, No Iterations 1
 T goes from min(T) [0 0 0 0 0 0 0] 9.57859e-21 to max(T) [0 0 0 0 0 0 0] 0.951969

ExecutionTime = 42.89 s  ClockTime = 734 s

Time = 0.69
Courant Number mean: 0.716503 max: 1.38021
DILUPBiCG:  Solving for T, Initial residual = 0.015323, Final residual = 3.90053e-10, No Iterations 5
DILUPBiCG:  Solving for T, Initial residual = 0.000187614, Final residual = 1.98374e-09, No Iterations 3
DILUPBiCG:  Solving for T, Initial residual = 2.52713e-06, Final residual = 1.69616e-09, No Iterations 2
DILUPBiCG:  Solving for T, Initial residual = 8.66046e-08, Final residual = 2.20935e-09, No Iterations 1
 T goes from min(T) [0 0 0 0 0 0 0] 8.92096e-21 to max(T) [0 0 0 0 0 0 0] 0.952093

ExecutionTime = 43.41 s  ClockTime = 741 s

Time = 0.7
Courant Number mean: 0.715551 max: 1.37757
DILUPBiCG:  Solving for T, Initial residual = 0.0154057, Final residual = 5.87766e-10, No Iterations 5
DILUPBiCG:  Solving for T, Initial residual = 0.000190516, Final residual = 2.33583e-09, No Iterations 3
DILUPBiCG:  Solving for T, Initial residual = 2.64143e-06, Final residual = 1.84119e-09, No Iterations 2
DILUPBiCG:  Solving for T, Initial residual = 9.28209e-08, Final residual = 2.43355e-09, No Iterations 1
 T goes from min(T) [0 0 0 0 0 0 0] 9.68049e-21 to max(T) [0 0 0 0 0 0 0] 0.953208

ExecutionTime = 43.91 s  ClockTime = 748 s

Time = 0.71
Courant Number mean: 0.714678 max: 1.37489
DILUPBiCG:  Solving for T, Initial residual = 0.0154928, Final residual = 6.31858e-10, No Iterations 5
DILUPBiCG:  Solving for T, Initial residual = 0.000193521, Final residual = 2.59296e-09, No Iterations 3
DILUPBiCG:  Solving for T, Initial residual = 2.75909e-06, Final residual = 2.06071e-09, No Iterations 2
DILUPBiCG:  Solving for T, Initial residual = 9.87842e-08, Final residual = 2.64674e-09, No Iterations 1
 T goes from min(T) [0 0 0 0 0 0 0] 8.97381e-21 to max(T) [0 0 0 0 0 0 0] 0.952635

ExecutionTime = 44.42 s  ClockTime = 755 s

Time = 0.72
Courant Number mean: 0.713694 max: 1.37218
DILUPBiCG:  Solving for T, Initial residual = 0.0155836, Final residual = 4.7581e-10, No Iterations 5
DILUPBiCG:  Solving for T, Initial residual = 0.000196587, Final residual = 2.83135e-09, No Iterations 3
DILUPBiCG:  Solving for T, Initial residual = 2.88317e-06, Final residual = 2.40332e-09, No Iterations 2
DILUPBiCG:  Solving for T, Initial residual = 1.05607e-07, Final residual = 2.86088e-09, No Iterations 1
 T goes from min(T) [0 0 0 0 0 0 0] 9.66949e-21 to max(T) [0 0 0 0 0 0 0] 0.950958

ExecutionTime = 44.93 s  ClockTime = 761 s

Time = 0.73
Courant Number mean: 0.71281 max: 1.36943
DILUPBiCG:  Solving for T, Initial residual = 0.0156753, Final residual = 4.48368e-10, No Iterations 5
DILUPBiCG:  Solving for T, Initial residual = 0.000199699, Final residual = 3.69499e-09, No Iterations 3
DILUPBiCG:  Solving for T, Initial residual = 3.01135e-06, Final residual = 2.9725e-09, No Iterations 2
DILUPBiCG:  Solving for T, Initial residual = 1.11866e-07, Final residual = 3.03312e-09, No Iterations 1
 T goes from min(T) [0 0 0 0 0 0 0] 9.03024e-21 to max(T) [0 0 0 0 0 0 0] 0.951041

ExecutionTime = 45.43 s  ClockTime = 768 s

Time = 0.74
Courant Number mean: 0.711792 max: 1.36665
DILUPBiCG:  Solving for T, Initial residual = 0.0157673, Final residual = 7.33567e-10, No Iterations 5
DILUPBiCG:  Solving for T, Initial residual = 0.00020298, Final residual = 5.66245e-09, No Iterations 3
DILUPBiCG:  Solving for T, Initial residual = 3.1463e-06, Final residual = 3.70621e-09, No Iterations 2
DILUPBiCG:  Solving for T, Initial residual = 1.19325e-07, Final residual = 3.28424e-09, No Iterations 1
 T goes from min(T) [0 0 0 0 0 0 0] 9.66303e-21 to max(T) [0 0 0 0 0 0 0] 0.952629

ExecutionTime = 45.95 s  ClockTime = 774 s

Time = 0.75
Courant Number mean: 0.710901 max: 1.36382
DILUPBiCG:  Solving for T, Initial residual = 0.0158592, Final residual = 8.51661e-10, No Iterations 5
DILUPBiCG:  Solving for T, Initial residual = 0.00020633, Final residual = 1.49113e-10, No Iterations 4
DILUPBiCG:  Solving for T, Initial residual = 3.28623e-06, Final residual = 4.24277e-09, No Iterations 2
DILUPBiCG:  Solving for T, Initial residual = 1.26507e-07, Final residual = 3.64484e-09, No Iterations 1
 T goes from min(T) [0 0 0 0 0 0 0] 9.09008e-21 to max(T) [0 0 0 0 0 0 0] 0.95241

ExecutionTime = 46.43 s  ClockTime = 781 s

Time = 0.76
Courant Number mean: 0.709861 max: 1.36099
DILUPBiCG:  Solving for T, Initial residual = 0.0159561, Final residual = 9.93035e-10, No Iterations 5
DILUPBiCG:  Solving for T, Initial residual = 0.000209729, Final residual = 1.8285e-10, No Iterations 4
DILUPBiCG:  Solving for T, Initial residual = 3.43409e-06, Final residual = 4.49601e-09, No Iterations 2
DILUPBiCG:  Solving for T, Initial residual = 1.3507e-07, Final residual = 4.23646e-09, No Iterations 1
 T goes from min(T) [0 0 0 0 0 0 0] -5.34568e-10 to max(T) [0 0 0 0 0 0 0] 0.95087

ExecutionTime = 47 s  ClockTime = 788 s

Time = 0.77
Courant Number mean: 0.70895 max: 1.35811
DILUPBiCG:  Solving for T, Initial residual = 0.0160616, Final residual = 1.08305e-09, No Iterations 5
DILUPBiCG:  Solving for T, Initial residual = 0.000213208, Final residual = 2.23342e-10, No Iterations 4
DILUPBiCG:  Solving for T, Initial residual = 3.58307e-06, Final residual = 4.65049e-09, No Iterations 2
DILUPBiCG:  Solving for T, Initial residual = 1.43036e-07, Final residual = 5.18674e-09, No Iterations 1
 T goes from min(T) [0 0 0 0 0 0 0] -1.76531e-09 to max(T) [0 0 0 0 0 0 0] 0.948013

ExecutionTime = 47.52 s  ClockTime = 795 s

Time = 0.78
Courant Number mean: 0.707902 max: 1.3552
DILUPBiCG:  Solving for T, Initial residual = 0.0161657, Final residual = 1.35093e-09, No Iterations 5
DILUPBiCG:  Solving for T, Initial residual = 0.000216769, Final residual = 2.62207e-10, No Iterations 4
DILUPBiCG:  Solving for T, Initial residual = 3.73804e-06, Final residual = 4.9698e-09, No Iterations 2
DILUPBiCG:  Solving for T, Initial residual = 1.52506e-07, Final residual = 6.76544e-09, No Iterations 1
 T goes from min(T) [0 0 0 0 0 0 0] -3.88303e-09 to max(T) [0 0 0 0 0 0 0] 0.950923

ExecutionTime = 48.01 s  ClockTime = 801 s

Time = 0.79
Courant Number mean: 0.706957 max: 1.35225
DILUPBiCG:  Solving for T, Initial residual = 0.0162667, Final residual = 1.75633e-09, No Iterations 5
DILUPBiCG:  Solving for T, Initial residual = 0.000220415, Final residual = 2.93061e-10, No Iterations 4
DILUPBiCG:  Solving for T, Initial residual = 3.8981e-06, Final residual = 6.10862e-09, No Iterations 2
DILUPBiCG:  Solving for T, Initial residual = 1.61368e-07, Final residual = 8.68595e-09, No Iterations 1
 T goes from min(T) [0 0 0 0 0 0 0] -7.04861e-09 to max(T) [0 0 0 0 0 0 0] 0.952223

ExecutionTime = 48.52 s  ClockTime = 808 s

Time = 0.8
Courant Number mean: 0.705903 max: 1.34928
DILUPBiCG:  Solving for T, Initial residual = 0.0163671, Final residual = 2.30299e-09, No Iterations 5
DILUPBiCG:  Solving for T, Initial residual = 0.000224177, Final residual = 9.78136e-09, No Iterations 3
DILUPBiCG:  Solving for T, Initial residual = 4.06448e-06, Final residual = 7.53014e-09, No Iterations 2
DILUPBiCG:  Solving for T, Initial residual = 1.71241e-07, Final residual = 1.88225e-09, No Iterations 2
 T goes from min(T) [0 0 0 0 0 0 0] -1.32974e-08 to max(T) [0 0 0 0 0 0 0] 0.951611

ExecutionTime = 49.06 s  ClockTime = 815 s

Time = 0.81
Courant Number mean: 0.704926 max: 1.34626
DILUPBiCG:  Solving for T, Initial residual = 0.0164758, Final residual = 2.53771e-09, No Iterations 5
DILUPBiCG:  Solving for T, Initial residual = 0.000228101, Final residual = 9.56735e-09, No Iterations 3
DILUPBiCG:  Solving for T, Initial residual = 4.23894e-06, Final residual = 8.96114e-09, No Iterations 2
DILUPBiCG:  Solving for T, Initial residual = 1.81092e-07, Final residual = 7.25516e-09, No Iterations 2
 T goes from min(T) [0 0 0 0 0 0 0] -2.20659e-08 to max(T) [0 0 0 0 0 0 0] 0.949296

ExecutionTime = 49.57 s  ClockTime = 821 s

Time = 0.82
Courant Number mean: 0.703864 max: 1.34321
DILUPBiCG:  Solving for T, Initial residual = 0.0165883, Final residual = 2.8247e-09, No Iterations 5
DILUPBiCG:  Solving for T, Initial residual = 0.000231977, Final residual = 9.24738e-09, No Iterations 3
DILUPBiCG:  Solving for T, Initial residual = 4.41474e-06, Final residual = 2.86636e-10, No Iterations 3
DILUPBiCG:  Solving for T, Initial residual = 1.95522e-07, Final residual = 2.20939e-09, No Iterations 2
 T goes from min(T) [0 0 0 0 0 0 0] -3.29492e-08 to max(T) [0 0 0 0 0 0 0] 0.945986

ExecutionTime = 50.07 s  ClockTime = 828 s

Time = 0.83
Courant Number mean: 0.702859 max: 1.34012
DILUPBiCG:  Solving for T, Initial residual = 0.0167029, Final residual = 3.10628e-09, No Iterations 5
DILUPBiCG:  Solving for T, Initial residual = 0.000235883, Final residual = 9.04601e-09, No Iterations 3
DILUPBiCG:  Solving for T, Initial residual = 4.60064e-06, Final residual = 2.94329e-10, No Iterations 3
DILUPBiCG:  Solving for T, Initial residual = 2.06744e-07, Final residual = 1.30501e-09, No Iterations 2
 T goes from min(T) [0 0 0 0 0 0 0] -4.99682e-08 to max(T) [0 0 0 0 0 0 0] 0.948124

ExecutionTime = 50.59 s  ClockTime = 835 s

Time = 0.84
Courant Number mean: 0.701793 max: 1.337
DILUPBiCG:  Solving for T, Initial residual = 0.0168194, Final residual = 3.31711e-09, No Iterations 5
DILUPBiCG:  Solving for T, Initial residual = 0.000239895, Final residual = 9.03733e-09, No Iterations 3
DILUPBiCG:  Solving for T, Initial residual = 4.78909e-06, Final residual = 3.08263e-10, No Iterations 3
DILUPBiCG:  Solving for T, Initial residual = 2.19073e-07, Final residual = 1.07254e-09, No Iterations 2
 T goes from min(T) [0 0 0 0 0 0 0] -7.29376e-08 to max(T) [0 0 0 0 0 0 0] 0.950858

ExecutionTime = 51.09 s  ClockTime = 841 s

Time = 0.85
Courant Number mean: 0.700758 max: 1.33385
DILUPBiCG:  Solving for T, Initial residual = 0.0169309, Final residual = 3.59464e-09, No Iterations 5
DILUPBiCG:  Solving for T, Initial residual = 0.000243968, Final residual = 9.24026e-09, No Iterations 3
DILUPBiCG:  Solving for T, Initial residual = 4.98564e-06, Final residual = 3.38567e-10, No Iterations 3
DILUPBiCG:  Solving for T, Initial residual = 2.31389e-07, Final residual = 1.01874e-09, No Iterations 2
 T goes from min(T) [0 0 0 0 0 0 0] -9.92661e-08 to max(T) [0 0 0 0 0 0 0] 0.951404

ExecutionTime = 51.61 s  ClockTime = 848 s

Time = 0.86
Courant Number mean: 0.699685 max: 1.33066
DILUPBiCG:  Solving for T, Initial residual = 0.0170432, Final residual = 4.00229e-09, No Iterations 5
DILUPBiCG:  Solving for T, Initial residual = 0.00024814, Final residual = 9.93628e-09, No Iterations 3
DILUPBiCG:  Solving for T, Initial residual = 5.19002e-06, Final residual = 3.77961e-10, No Iterations 3
DILUPBiCG:  Solving for T, Initial residual = 2.45172e-07, Final residual = 1.0094e-09, No Iterations 2
 T goes from min(T) [0 0 0 0 0 0 0] -1.43684e-07 to max(T) [0 0 0 0 0 0 0] 0.949986

ExecutionTime = 52.15 s  ClockTime = 855 s

Time = 0.87
Courant Number mean: 0.698621 max: 1.32744
DILUPBiCG:  Solving for T, Initial residual = 0.0171646, Final residual = 4.11538e-09, No Iterations 5
DILUPBiCG:  Solving for T, Initial residual = 0.000252421, Final residual = 2.08271e-09, No Iterations 4
DILUPBiCG:  Solving for T, Initial residual = 5.40331e-06, Final residual = 4.0941e-10, No Iterations 3
DILUPBiCG:  Solving for T, Initial residual = 2.58806e-07, Final residual = 9.66139e-10, No Iterations 2
 T goes from min(T) [0 0 0 0 0 0 0] -1.93563e-07 to max(T) [0 0 0 0 0 0 0] 0.946582

ExecutionTime = 52.66 s  ClockTime = 862 s

Time = 0.88
Courant Number mean: 0.697541 max: 1.32418
DILUPBiCG:  Solving for T, Initial residual = 0.0172892, Final residual = 5.01889e-09, No Iterations 5
DILUPBiCG:  Solving for T, Initial residual = 0.000256825, Final residual = 1.72118e-09, No Iterations 4
DILUPBiCG:  Solving for T, Initial residual = 5.61454e-06, Final residual = 4.22564e-10, No Iterations 3
DILUPBiCG:  Solving for T, Initial residual = 2.73254e-07, Final residual = 9.02948e-10, No Iterations 2
 T goes from min(T) [0 0 0 0 0 0 0] -2.57861e-07 to max(T) [0 0 0 0 0 0 0] 0.942332

ExecutionTime = 53.24 s  ClockTime = 869 s

Time = 0.89
Courant Number mean: 0.696448 max: 1.32089
DILUPBiCG:  Solving for T, Initial residual = 0.0174173, Final residual = 7.28171e-11, No Iterations 6
DILUPBiCG:  Solving for T, Initial residual = 0.00026117, Final residual = 1.60482e-09, No Iterations 4
DILUPBiCG:  Solving for T, Initial residual = 5.83694e-06, Final residual = 4.14295e-10, No Iterations 3
DILUPBiCG:  Solving for T, Initial residual = 2.8799e-07, Final residual = 8.41443e-10, No Iterations 2
 T goes from min(T) [0 0 0 0 0 0 0] -3.43838e-07 to max(T) [0 0 0 0 0 0 0] 0.944145

ExecutionTime = 53.78 s  ClockTime = 876 s

Time = 0.9
Courant Number mean: 0.695363 max: 1.31757
DILUPBiCG:  Solving for T, Initial residual = 0.0175403, Final residual = 8.74339e-11, No Iterations 6
DILUPBiCG:  Solving for T, Initial residual = 0.000265543, Final residual = 1.38485e-09, No Iterations 4
DILUPBiCG:  Solving for T, Initial residual = 6.06007e-06, Final residual = 3.92962e-10, No Iterations 3
DILUPBiCG:  Solving for T, Initial residual = 3.03729e-07, Final residual = 8.11048e-10, No Iterations 2
 T goes from min(T) [0 0 0 0 0 0 0] -4.34183e-07 to max(T) [0 0 0 0 0 0 0] 0.947949

ExecutionTime = 54.29 s  ClockTime = 883 s

Time = 0.91
Courant Number mean: 0.694241 max: 1.31421
DILUPBiCG:  Solving for T, Initial residual = 0.0176646, Final residual = 5.09236e-09, No Iterations 5
DILUPBiCG:  Solving for T, Initial residual = 0.000269997, Final residual = 9.02807e-10, No Iterations 4
DILUPBiCG:  Solving for T, Initial residual = 6.29673e-06, Final residual = 3.68463e-10, No Iterations 3
DILUPBiCG:  Solving for T, Initial residual = 3.20228e-07, Final residual = 8.00469e-10, No Iterations 2
 T goes from min(T) [0 0 0 0 0 0 0] -5.73388e-07 to max(T) [0 0 0 0 0 0 0] 0.949999

ExecutionTime = 54.8 s  ClockTime = 890 s

Time = 0.92
Courant Number mean: 0.693151 max: 1.31082
DILUPBiCG:  Solving for T, Initial residual = 0.0177941, Final residual = 2.33751e-09, No Iterations 5
DILUPBiCG:  Solving for T, Initial residual = 0.000274621, Final residual = 4.60261e-10, No Iterations 4
DILUPBiCG:  Solving for T, Initial residual = 6.53591e-06, Final residual = 3.50124e-10, No Iterations 3
DILUPBiCG:  Solving for T, Initial residual = 3.36589e-07, Final residual = 7.98046e-10, No Iterations 2
 T goes from min(T) [0 0 0 0 0 0 0] -7.15337e-07 to max(T) [0 0 0 0 0 0 0] 0.950465

ExecutionTime = 55.32 s  ClockTime = 896 s

Time = 0.93
Courant Number mean: 0.692003 max: 1.30739
DILUPBiCG:  Solving for T, Initial residual = 0.017921, Final residual = 1.40935e-09, No Iterations 5
DILUPBiCG:  Solving for T, Initial residual = 0.000279106, Final residual = 3.68948e-10, No Iterations 4
DILUPBiCG:  Solving for T, Initial residual = 6.78257e-06, Final residual = 3.33875e-10, No Iterations 3
DILUPBiCG:  Solving for T, Initial residual = 3.53996e-07, Final residual = 8.02461e-10, No Iterations 2
 T goes from min(T) [0 0 0 0 0 0 0] -9.10843e-07 to max(T) [0 0 0 0 0 0 0] 0.949853

ExecutionTime = 55.84 s  ClockTime = 903 s

Time = 0.94
Courant Number mean: 0.690909 max: 1.30393
DILUPBiCG:  Solving for T, Initial residual = 0.0180503, Final residual = 1.21869e-09, No Iterations 5
DILUPBiCG:  Solving for T, Initial residual = 0.000283942, Final residual = 9.77609e-09, No Iterations 3
DILUPBiCG:  Solving for T, Initial residual = 7.03503e-06, Final residual = 3.19378e-10, No Iterations 3
DILUPBiCG:  Solving for T, Initial residual = 3.71772e-07, Final residual = 8.08447e-10, No Iterations 2
 T goes from min(T) [0 0 0 0 0 0 0] -1.13075e-06 to max(T) [0 0 0 0 0 0 0] 0.948814

ExecutionTime = 56.34 s  ClockTime = 910 s

Time = 0.95
Courant Number mean: 0.689734 max: 1.30044
DILUPBiCG:  Solving for T, Initial residual = 0.0181829, Final residual = 1.68833e-09, No Iterations 5
DILUPBiCG:  Solving for T, Initial residual = 0.000288677, Final residual = 8.92632e-09, No Iterations 3
DILUPBiCG:  Solving for T, Initial residual = 7.2923e-06, Final residual = 3.09798e-10, No Iterations 3
DILUPBiCG:  Solving for T, Initial residual = 3.91022e-07, Final residual = 8.26338e-10, No Iterations 2
 T goes from min(T) [0 0 0 0 0 0 0] -1.38854e-06 to max(T) [0 0 0 0 0 0 0] 0.947691

ExecutionTime = 56.88 s  ClockTime = 917 s

Time = 0.96
Courant Number mean: 0.68864 max: 1.29692
DILUPBiCG:  Solving for T, Initial residual = 0.0183194, Final residual = 2.17732e-09, No Iterations 5
DILUPBiCG:  Solving for T, Initial residual = 0.000293448, Final residual = 8.31733e-09, No Iterations 3
DILUPBiCG:  Solving for T, Initial residual = 7.56222e-06, Final residual = 3.12765e-10, No Iterations 3
DILUPBiCG:  Solving for T, Initial residual = 4.09669e-07, Final residual = 8.78236e-10, No Iterations 2
 T goes from min(T) [0 0 0 0 0 0 0] -1.71595e-06 to max(T) [0 0 0 0 0 0 0] 0.946583

ExecutionTime = 57.45 s  ClockTime = 924 s

Time = 0.97
Courant Number mean: 0.687444 max: 1.29336
DILUPBiCG:  Solving for T, Initial residual = 0.0184566, Final residual = 2.76227e-09, No Iterations 5
DILUPBiCG:  Solving for T, Initial residual = 0.000298416, Final residual = 7.90336e-09, No Iterations 3
DILUPBiCG:  Solving for T, Initial residual = 7.83057e-06, Final residual = 3.12028e-10, No Iterations 3
DILUPBiCG:  Solving for T, Initial residual = 4.29968e-07, Final residual = 9.66554e-10, No Iterations 2
 T goes from min(T) [0 0 0 0 0 0 0] -2.08878e-06 to max(T) [0 0 0 0 0 0 0] 0.94586

ExecutionTime = 58 s  ClockTime = 931 s

Time = 0.98
Courant Number mean: 0.686341 max: 1.28977
DILUPBiCG:  Solving for T, Initial residual = 0.0185907, Final residual = 4.58621e-09, No Iterations 5
DILUPBiCG:  Solving for T, Initial residual = 0.000303315, Final residual = 7.63027e-09, No Iterations 3
DILUPBiCG:  Solving for T, Initial residual = 8.09969e-06, Final residual = 3.05565e-10, No Iterations 3
DILUPBiCG:  Solving for T, Initial residual = 4.50513e-07, Final residual = 1.08078e-09, No Iterations 2
 T goes from min(T) [0 0 0 0 0 0 0] -2.50985e-06 to max(T) [0 0 0 0 0 0 0] 0.945355

ExecutionTime = 58.52 s  ClockTime = 938 s

Time = 0.99
Courant Number mean: 0.685121 max: 1.28615
DILUPBiCG:  Solving for T, Initial residual = 0.01872, Final residual = 8.08088e-11, No Iterations 6
DILUPBiCG:  Solving for T, Initial residual = 0.000308123, Final residual = 7.40309e-09, No Iterations 3
DILUPBiCG:  Solving for T, Initial residual = 8.38738e-06, Final residual = 2.98063e-10, No Iterations 3
DILUPBiCG:  Solving for T, Initial residual = 4.72011e-07, Final residual = 1.21199e-09, No Iterations 2
 T goes from min(T) [0 0 0 0 0 0 0] -3.05822e-06 to max(T) [0 0 0 0 0 0 0] 0.947345

ExecutionTime = 59.03 s  ClockTime = 945 s

Time = 1
Courant Number mean: 0.684019 max: 1.2825
DILUPBiCG:  Solving for T, Initial residual = 0.0188606, Final residual = 3.59497e-09, No Iterations 5
DILUPBiCG:  Solving for T, Initial residual = 0.000313182, Final residual = 7.28243e-09, No Iterations 3
DILUPBiCG:  Solving for T, Initial residual = 8.68362e-06, Final residual = 2.87192e-10, No Iterations 3
DILUPBiCG:  Solving for T, Initial residual = 4.93518e-07, Final residual = 1.33474e-09, No Iterations 2
 T goes from min(T) [0 0 0 0 0 0 0] -3.67308e-06 to max(T) [0 0 0 0 0 0 0] 0.948536

ExecutionTime = 59.54 s  ClockTime = 951 s

Time = 1.01
Courant Number mean: 0.682782 max: 1.27882
DILUPBiCG:  Solving for T, Initial residual = 0.0189986, Final residual = 1.40621e-09, No Iterations 5
DILUPBiCG:  Solving for T, Initial residual = 0.00031829, Final residual = 7.14558e-09, No Iterations 3
DILUPBiCG:  Solving for T, Initial residual = 8.97178e-06, Final residual = 2.80422e-10, No Iterations 3
DILUPBiCG:  Solving for T, Initial residual = 5.1625e-07, Final residual = 1.4658e-09, No Iterations 2
 T goes from min(T) [0 0 0 0 0 0 0] -4.35193e-06 to max(T) [0 0 0 0 0 0 0] 0.948978

ExecutionTime = 60.06 s  ClockTime = 958 s

Time = 1.02
Courant Number mean: 0.681666 max: 1.27512
DILUPBiCG:  Solving for T, Initial residual = 0.019135, Final residual = 7.95759e-10, No Iterations 5
DILUPBiCG:  Solving for T, Initial residual = 0.000323508, Final residual = 7.05244e-09, No Iterations 3
DILUPBiCG:  Solving for T, Initial residual = 9.27683e-06, Final residual = 2.72222e-10, No Iterations 3
DILUPBiCG:  Solving for T, Initial residual = 5.39314e-07, Final residual = 1.5496e-09, No Iterations 2
 T goes from min(T) [0 0 0 0 0 0 0] -5.2266e-06 to max(T) [0 0 0 0 0 0 0] 0.949181

ExecutionTime = 60.56 s  ClockTime = 965 s

Time = 1.03
Courant Number mean: 0.680431 max: 1.27138
DILUPBiCG:  Solving for T, Initial residual = 0.0192804, Final residual = 4.87983e-10, No Iterations 5
DILUPBiCG:  Solving for T, Initial residual = 0.000328601, Final residual = 6.90021e-09, No Iterations 3
DILUPBiCG:  Solving for T, Initial residual = 9.59053e-06, Final residual = 2.66398e-10, No Iterations 3
DILUPBiCG:  Solving for T, Initial residual = 5.62952e-07, Final residual = 1.59459e-09, No Iterations 2
 T goes from min(T) [0 0 0 0 0 0 0] -6.02207e-06 to max(T) [0 0 0 0 0 0 0] 0.949182

ExecutionTime = 61.16 s  ClockTime = 972 s

Time = 1.04
Courant Number mean: 0.679291 max: 1.26761
DILUPBiCG:  Solving for T, Initial residual = 0.0194189, Final residual = 3.37204e-10, No Iterations 5
DILUPBiCG:  Solving for T, Initial residual = 0.000333909, Final residual = 6.84259e-09, No Iterations 3
DILUPBiCG:  Solving for T, Initial residual = 9.89532e-06, Final residual = 2.60948e-10, No Iterations 3
DILUPBiCG:  Solving for T, Initial residual = 5.87759e-07, Final residual = 1.61717e-09, No Iterations 2
 T goes from min(T) [0 0 0 0 0 0 0] -7.23561e-06 to max(T) [0 0 0 0 0 0 0] 0.949063

ExecutionTime = 61.68 s  ClockTime = 979 s

Time = 1.05
Courant Number mean: 0.678058 max: 1.26381
DILUPBiCG:  Solving for T, Initial residual = 0.0195585, Final residual = 2.68844e-10, No Iterations 5
DILUPBiCG:  Solving for T, Initial residual = 0.000339297, Final residual = 6.72836e-09, No Iterations 3
DILUPBiCG:  Solving for T, Initial residual = 1.02253e-05, Final residual = 2.56173e-10, No Iterations 3
DILUPBiCG:  Solving for T, Initial residual = 6.13338e-07, Final residual = 1.59905e-09, No Iterations 2
 T goes from min(T) [0 0 0 0 0 0 0] -8.30119e-06 to max(T) [0 0 0 0 0 0 0] 0.948845

ExecutionTime = 62.24 s  ClockTime = 986 s

Time = 1.06
Courant Number mean: 0.676899 max: 1.25998
DILUPBiCG:  Solving for T, Initial residual = 0.0197039, Final residual = 2.69191e-10, No Iterations 5
DILUPBiCG:  Solving for T, Initial residual = 0.000344514, Final residual = 6.65954e-09, No Iterations 3
DILUPBiCG:  Solving for T, Initial residual = 1.05545e-05, Final residual = 2.50273e-10, No Iterations 3
DILUPBiCG:  Solving for T, Initial residual = 6.38523e-07, Final residual = 1.56737e-09, No Iterations 2
 T goes from min(T) [0 0 0 0 0 0 0] -9.74728e-06 to max(T) [0 0 0 0 0 0 0] 0.948871

ExecutionTime = 62.76 s  ClockTime = 993 s

Time = 1.07
Courant Number mean: 0.675665 max: 1.25612
DILUPBiCG:  Solving for T, Initial residual = 0.0198438, Final residual = 2.33157e-10, No Iterations 5
DILUPBiCG:  Solving for T, Initial residual = 0.00034996, Final residual = 6.60583e-09, No Iterations 3
DILUPBiCG:  Solving for T, Initial residual = 1.08675e-05, Final residual = 2.48652e-10, No Iterations 3
DILUPBiCG:  Solving for T, Initial residual = 6.65316e-07, Final residual = 1.53071e-09, No Iterations 2
 T goes from min(T) [0 0 0 0 0 0 0] -1.13035e-05 to max(T) [0 0 0 0 0 0 0] 0.948688

ExecutionTime = 63.27 s  ClockTime = 1000 s

Time = 1.08
Courant Number mean: 0.674484 max: 1.25223
DILUPBiCG:  Solving for T, Initial residual = 0.0199805, Final residual = 1.832e-10, No Iterations 5
DILUPBiCG:  Solving for T, Initial residual = 0.000355368, Final residual = 6.51858e-09, No Iterations 3
DILUPBiCG:  Solving for T, Initial residual = 1.12238e-05, Final residual = 2.43712e-10, No Iterations 3
DILUPBiCG:  Solving for T, Initial residual = 6.92744e-07, Final residual = 1.48504e-09, No Iterations 2
 T goes from min(T) [0 0 0 0 0 0 0] -1.32339e-05 to max(T) [0 0 0 0 0 0 0] 0.948361

ExecutionTime = 63.82 s  ClockTime = 1007 s

Time = 1.09
Courant Number mean: 0.673251 max: 1.2483
DILUPBiCG:  Solving for T, Initial residual = 0.0201227, Final residual = 2.66297e-10, No Iterations 5
DILUPBiCG:  Solving for T, Initial residual = 0.0003608, Final residual = 6.48403e-09, No Iterations 3
DILUPBiCG:  Solving for T, Initial residual = 1.15728e-05, Final residual = 2.41246e-10, No Iterations 3
DILUPBiCG:  Solving for T, Initial residual = 7.19675e-07, Final residual = 1.44069e-09, No Iterations 2
 T goes from min(T) [0 0 0 0 0 0 0] -1.50571e-05 to max(T) [0 0 0 0 0 0 0] 0.948216

ExecutionTime = 64.34 s  ClockTime = 1014 s

Time = 1.1
Courant Number mean: 0.672049 max: 1.24434
DILUPBiCG:  Solving for T, Initial residual = 0.0202681, Final residual = 4.7328e-10, No Iterations 5
DILUPBiCG:  Solving for T, Initial residual = 0.000366398, Final residual = 6.44418e-09, No Iterations 3
DILUPBiCG:  Solving for T, Initial residual = 1.19059e-05, Final residual = 2.39988e-10, No Iterations 3
DILUPBiCG:  Solving for T, Initial residual = 7.49007e-07, Final residual = 1.40403e-09, No Iterations 2
 T goes from min(T) [0 0 0 0 0 0 0] -1.77124e-05 to max(T) [0 0 0 0 0 0 0] 0.948325

ExecutionTime = 64.86 s  ClockTime = 1021 s

Time = 1.11
Courant Number mean: 0.670818 max: 1.24036
DILUPBiCG:  Solving for T, Initial residual = 0.0204011, Final residual = 7.91262e-10, No Iterations 5
DILUPBiCG:  Solving for T, Initial residual = 0.000371741, Final residual = 6.35995e-09, No Iterations 3
DILUPBiCG:  Solving for T, Initial residual = 1.22787e-05, Final residual = 2.37944e-10, No Iterations 3
DILUPBiCG:  Solving for T, Initial residual = 7.77476e-07, Final residual = 1.36243e-09, No Iterations 2
 T goes from min(T) [0 0 0 0 0 0 0] -1.97523e-05 to max(T) [0 0 0 0 0 0 0] 0.948386

ExecutionTime = 65.4 s  ClockTime = 1028 s

Time = 1.12
Courant Number mean: 0.669599 max: 1.23634
DILUPBiCG:  Solving for T, Initial residual = 0.0205435, Final residual = 9.77693e-09, No Iterations 4
DILUPBiCG:  Solving for T, Initial residual = 0.000377726, Final residual = 6.34245e-09, No Iterations 3
DILUPBiCG:  Solving for T, Initial residual = 1.26375e-05, Final residual = 2.37194e-10, No Iterations 3
DILUPBiCG:  Solving for T, Initial residual = 8.05967e-07, Final residual = 1.32128e-09, No Iterations 2
 T goes from min(T) [0 0 0 0 0 0 0] -2.32188e-05 to max(T) [0 0 0 0 0 0 0] 0.948424

ExecutionTime = 65.93 s  ClockTime = 1035 s

Time = 1.13
Courant Number mean: 0.668374 max: 1.23229
DILUPBiCG:  Solving for T, Initial residual = 0.0206943, Final residual = 9.03913e-09, No Iterations 4
DILUPBiCG:  Solving for T, Initial residual = 0.000383341, Final residual = 6.29447e-09, No Iterations 3
DILUPBiCG:  Solving for T, Initial residual = 1.29907e-05, Final residual = 2.37282e-10, No Iterations 3
DILUPBiCG:  Solving for T, Initial residual = 8.38772e-07, Final residual = 1.29324e-09, No Iterations 2
 T goes from min(T) [0 0 0 0 0 0 0] -2.6228e-05 to max(T) [0 0 0 0 0 0 0] 0.948458

ExecutionTime = 66.46 s  ClockTime = 1042 s

Time = 1.14
Courant Number mean: 0.667138 max: 1.22821
DILUPBiCG:  Solving for T, Initial residual = 0.0208291, Final residual = 8.38063e-09, No Iterations 4
DILUPBiCG:  Solving for T, Initial residual = 0.000388553, Final residual = 6.20269e-09, No Iterations 3
DILUPBiCG:  Solving for T, Initial residual = 1.33796e-05, Final residual = 2.36158e-10, No Iterations 3
DILUPBiCG:  Solving for T, Initial residual = 8.66925e-07, Final residual = 1.27226e-09, No Iterations 2
 T goes from min(T) [0 0 0 0 0 0 0] -2.9838e-05 to max(T) [0 0 0 0 0 0 0] 0.948495

ExecutionTime = 66.98 s  ClockTime = 1048 s

Time = 1.15
Courant Number mean: 0.665914 max: 1.22411
DILUPBiCG:  Solving for T, Initial residual = 0.0209682, Final residual = 7.78846e-09, No Iterations 4
DILUPBiCG:  Solving for T, Initial residual = 0.000394878, Final residual = 6.17527e-09, No Iterations 3
DILUPBiCG:  Solving for T, Initial residual = 1.3753e-05, Final residual = 2.36636e-10, No Iterations 3
DILUPBiCG:  Solving for T, Initial residual = 8.99335e-07, Final residual = 1.25568e-09, No Iterations 2
 T goes from min(T) [0 0 0 0 0 0 0] -3.41981e-05 to max(T) [0 0 0 0 0 0 0] 0.948529

ExecutionTime = 67.5 s  ClockTime = 1055 s

Time = 1.16
Courant Number mean: 0.664662 max: 1.21997
DILUPBiCG:  Solving for T, Initial residual = 0.021113, Final residual = 7.33299e-09, No Iterations 4
DILUPBiCG:  Solving for T, Initial residual = 0.00040039, Final residual = 6.11818e-09, No Iterations 3
DILUPBiCG:  Solving for T, Initial residual = 1.41192e-05, Final residual = 2.37904e-10, No Iterations 3
DILUPBiCG:  Solving for T, Initial residual = 9.33412e-07, Final residual = 1.23882e-09, No Iterations 2
 T goes from min(T) [0 0 0 0 0 0 0] -3.90508e-05 to max(T) [0 0 0 0 0 0 0] 0.948551

ExecutionTime = 68.01 s  ClockTime = 1062 s

Time = 1.17
Courant Number mean: 0.663442 max: 1.2158
DILUPBiCG:  Solving for T, Initial residual = 0.0212473, Final residual = 6.97595e-09, No Iterations 4
DILUPBiCG:  Solving for T, Initial residual = 0.000405915, Final residual = 6.03793e-09, No Iterations 3
DILUPBiCG:  Solving for T, Initial residual = 1.45193e-05, Final residual = 2.37555e-10, No Iterations 3
DILUPBiCG:  Solving for T, Initial residual = 9.61705e-07, Final residual = 1.22176e-09, No Iterations 2
 T goes from min(T) [0 0 0 0 0 0 0] -4.38397e-05 to max(T) [0 0 0 0 0 0 0] 0.948543

ExecutionTime = 68.55 s  ClockTime = 1069 s

Time = 1.18
Courant Number mean: 0.662176 max: 1.2116
DILUPBiCG:  Solving for T, Initial residual = 0.0213869, Final residual = 6.67287e-09, No Iterations 4
DILUPBiCG:  Solving for T, Initial residual = 0.000412214, Final residual = 5.96002e-09, No Iterations 3
DILUPBiCG:  Solving for T, Initial residual = 1.49307e-05, Final residual = 2.39254e-10, No Iterations 3
DILUPBiCG:  Solving for T, Initial residual = 9.97777e-07, Final residual = 1.21969e-09, No Iterations 2
 T goes from min(T) [0 0 0 0 0 0 0] -5.0518e-05 to max(T) [0 0 0 0 0 0 0] 0.948475

ExecutionTime = 69.08 s  ClockTime = 1076 s

Time = 1.19
Courant Number mean: 0.660963 max: 1.20737
DILUPBiCG:  Solving for T, Initial residual = 0.0215251, Final residual = 6.56545e-09, No Iterations 4
DILUPBiCG:  Solving for T, Initial residual = 0.000417656, Final residual = 5.88705e-09, No Iterations 3
DILUPBiCG:  Solving for T, Initial residual = 1.53059e-05, Final residual = 2.39983e-10, No Iterations 3
DILUPBiCG:  Solving for T, Initial residual = 1.03199e-06, Final residual = 1.24445e-09, No Iterations 2
 T goes from min(T) [0 0 0 0 0 0 0] -5.54236e-05 to max(T) [0 0 0 0 0 0 0] 0.948311

ExecutionTime = 69.59 s  ClockTime = 1082 s

Time = 1.2
Courant Number mean: 0.659684 max: 1.20312
DILUPBiCG:  Solving for T, Initial residual = 0.0216587, Final residual = 6.96066e-09, No Iterations 4
DILUPBiCG:  Solving for T, Initial residual = 0.000423624, Final residual = 5.80996e-09, No Iterations 3
DILUPBiCG:  Solving for T, Initial residual = 1.57141e-05, Final residual = 2.41281e-10, No Iterations 3
DILUPBiCG:  Solving for T, Initial residual = 1.06335e-06, Final residual = 1.26826e-09, No Iterations 2
 T goes from min(T) [0 0 0 0 0 0 0] -6.45499e-05 to max(T) [0 0 0 0 0 0 0] 0.948002

ExecutionTime = 70.18 s  ClockTime = 1090 s

Time = 1.21
Courant Number mean: 0.658476 max: 1.19883
DILUPBiCG:  Solving for T, Initial residual = 0.0217995, Final residual = 7.29207e-09, No Iterations 4
DILUPBiCG:  Solving for T, Initial residual = 0.000429857, Final residual = 5.71076e-09, No Iterations 3
DILUPBiCG:  Solving for T, Initial residual = 1.61314e-05, Final residual = 2.43889e-10, No Iterations 3
DILUPBiCG:  Solving for T, Initial residual = 1.10079e-06, Final residual = 1.29379e-09, No Iterations 2
 T goes from min(T) [0 0 0 0 0 0 0] -7.17999e-05 to max(T) [0 0 0 0 0 0 0] 0.948028

ExecutionTime = 70.76 s  ClockTime = 1098 s

Time = 1.22
Courant Number mean: 0.657184 max: 1.19452
DILUPBiCG:  Solving for T, Initial residual = 0.0219364, Final residual = 7.52692e-09, No Iterations 4
DILUPBiCG:  Solving for T, Initial residual = 0.000435588, Final residual = 5.59917e-09, No Iterations 3
DILUPBiCG:  Solving for T, Initial residual = 1.65253e-05, Final residual = 2.4425e-10, No Iterations 3
DILUPBiCG:  Solving for T, Initial residual = 1.13532e-06, Final residual = 1.3021e-09, No Iterations 2
 T goes from min(T) [0 0 0 0 0 0 0] -8.1617e-05 to max(T) [0 0 0 0 0 0 0] 0.948502

ExecutionTime = 71.28 s  ClockTime = 1104 s

Time = 1.23
Courant Number mean: 0.655984 max: 1.19018
DILUPBiCG:  Solving for T, Initial residual = 0.0220671, Final residual = 7.42923e-09, No Iterations 4
DILUPBiCG:  Solving for T, Initial residual = 0.000441605, Final residual = 5.49495e-09, No Iterations 3
DILUPBiCG:  Solving for T, Initial residual = 1.69565e-05, Final residual = 2.47218e-10, No Iterations 3
DILUPBiCG:  Solving for T, Initial residual = 1.17062e-06, Final residual = 1.24766e-09, No Iterations 2
 T goes from min(T) [0 0 0 0 0 0 0] -9.20758e-05 to max(T) [0 0 0 0 0 0 0] 0.948892

ExecutionTime = 71.82 s  ClockTime = 1111 s

Time = 1.24
Courant Number mean: 0.654684 max: 1.18581
DILUPBiCG:  Solving for T, Initial residual = 0.0222055, Final residual = 7.30915e-09, No Iterations 4
DILUPBiCG:  Solving for T, Initial residual = 0.000447664, Final residual = 5.37868e-09, No Iterations 3
DILUPBiCG:  Solving for T, Initial residual = 1.73776e-05, Final residual = 2.47899e-10, No Iterations 3
DILUPBiCG:  Solving for T, Initial residual = 1.20633e-06, Final residual = 1.211e-09, No Iterations 2
 T goes from min(T) [0 0 0 0 0 0 0] -0.000103578 to max(T) [0 0 0 0 0 0 0] 0.949121

ExecutionTime = 72.38 s  ClockTime = 1119 s

Time = 1.25
Courant Number mean: 0.653491 max: 1.18141
DILUPBiCG:  Solving for T, Initial residual = 0.0223381, Final residual = 7.17542e-09, No Iterations 4
DILUPBiCG:  Solving for T, Initial residual = 0.000453565, Final residual = 5.30675e-09, No Iterations 3
DILUPBiCG:  Solving for T, Initial residual = 1.77851e-05, Final residual = 2.48767e-10, No Iterations 3
DILUPBiCG:  Solving for T, Initial residual = 1.24332e-06, Final residual = 1.20606e-09, No Iterations 2
 T goes from min(T) [0 0 0 0 0 0 0] -0.000117051 to max(T) [0 0 0 0 0 0 0] 0.949105

ExecutionTime = 72.93 s  ClockTime = 1126 s

Time = 1.26
Courant Number mean: 0.65219 max: 1.17699
DILUPBiCG:  Solving for T, Initial residual = 0.0224675, Final residual = 7.05175e-09, No Iterations 4
DILUPBiCG:  Solving for T, Initial residual = 0.000459697, Final residual = 5.23017e-09, No Iterations 3
DILUPBiCG:  Solving for T, Initial residual = 1.82296e-05, Final residual = 2.49455e-10, No Iterations 3
DILUPBiCG:  Solving for T, Initial residual = 1.2813e-06, Final residual = 1.20933e-09, No Iterations 2
 T goes from min(T) [0 0 0 0 0 0 0] -0.000132826 to max(T) [0 0 0 0 0 0 0] 0.948744

ExecutionTime = 73.44 s  ClockTime = 1133 s

Time = 1.27
Courant Number mean: 0.650997 max: 1.17255
DILUPBiCG:  Solving for T, Initial residual = 0.0226113, Final residual = 6.64048e-09, No Iterations 4
DILUPBiCG:  Solving for T, Initial residual = 0.000465942, Final residual = 5.14086e-09, No Iterations 3
DILUPBiCG:  Solving for T, Initial residual = 1.86567e-05, Final residual = 2.49872e-10, No Iterations 3
DILUPBiCG:  Solving for T, Initial residual = 1.31626e-06, Final residual = 1.22212e-09, No Iterations 2
 T goes from min(T) [0 0 0 0 0 0 0] -0.000147648 to max(T) [0 0 0 0 0 0 0] 0.947927

ExecutionTime = 73.97 s  ClockTime = 1139 s

Time = 1.28
Courant Number mean: 0.649709 max: 1.16808
DILUPBiCG:  Solving for T, Initial residual = 0.0227278, Final residual = 6.16238e-09, No Iterations 4
DILUPBiCG:  Solving for T, Initial residual = 0.000471838, Final residual = 5.07032e-09, No Iterations 3
DILUPBiCG:  Solving for T, Initial residual = 1.90892e-05, Final residual = 2.52889e-10, No Iterations 3
DILUPBiCG:  Solving for T, Initial residual = 1.35729e-06, Final residual = 1.23527e-09, No Iterations 2
 T goes from min(T) [0 0 0 0 0 0 0] -0.000169426 to max(T) [0 0 0 0 0 0 0] 0.948601

ExecutionTime = 74.5 s  ClockTime = 1146 s

Time = 1.29
Courant Number mean: 0.648509 max: 1.16358
DILUPBiCG:  Solving for T, Initial residual = 0.0228654, Final residual = 5.59575e-09, No Iterations 4
DILUPBiCG:  Solving for T, Initial residual = 0.000477903, Final residual = 4.99687e-09, No Iterations 3
DILUPBiCG:  Solving for T, Initial residual = 1.95193e-05, Final residual = 2.52541e-10, No Iterations 3
DILUPBiCG:  Solving for T, Initial residual = 1.39412e-06, Final residual = 1.24101e-09, No Iterations 2
 T goes from min(T) [0 0 0 0 0 0 0] -0.000185065 to max(T) [0 0 0 0 0 0 0] 0.94922

ExecutionTime = 75.03 s  ClockTime = 1153 s

Time = 1.3
Courant Number mean: 0.647232 max: 1.15905
DILUPBiCG:  Solving for T, Initial residual = 0.0229971, Final residual = 5.31369e-09, No Iterations 4
DILUPBiCG:  Solving for T, Initial residual = 0.000483872, Final residual = 4.93695e-09, No Iterations 3
DILUPBiCG:  Solving for T, Initial residual = 1.99742e-05, Final residual = 2.54836e-10, No Iterations 3
DILUPBiCG:  Solving for T, Initial residual = 1.43219e-06, Final residual = 1.2495e-09, No Iterations 2
 T goes from min(T) [0 0 0 0 0 0 0] -0.00021506 to max(T) [0 0 0 0 0 0 0] 0.949359

ExecutionTime = 75.55 s  ClockTime = 1160 s

Time = 1.31
Courant Number mean: 0.646025 max: 1.1545
DILUPBiCG:  Solving for T, Initial residual = 0.0231063, Final residual = 5.17072e-09, No Iterations 4
DILUPBiCG:  Solving for T, Initial residual = 0.000489921, Final residual = 4.86338e-09, No Iterations 3
DILUPBiCG:  Solving for T, Initial residual = 2.03959e-05, Final residual = 2.56896e-10, No Iterations 3
DILUPBiCG:  Solving for T, Initial residual = 1.47273e-06, Final residual = 1.25655e-09, No Iterations 2
 T goes from min(T) [0 0 0 0 0 0 0] -0.000237439 to max(T) [0 0 0 0 0 0 0] 0.948874

ExecutionTime = 76.06 s  ClockTime = 1166 s

[...]
 T goes from min(T) [0 0 0 0 0 0 0] -0.151721 to max(T) [0 0 0 0 0 0 0] 0.912243

ExecutionTime = 309.83 s  ClockTime = 2885 s

Time = 5.68
Courant Number mean: 0.717364 max: 1.38281
DILUPBiCG:  Solving for T, Initial residual = 0.0169539, Final residual = 3.73135e-09, No Iterations 4
DILUPBiCG:  Solving for T, Initial residual = 0.000446874, Final residual = 2.33365e-09, No Iterations 3
DILUPBiCG:  Solving for T, Initial residual = 3.23181e-05, Final residual = 3.94549e-09, No Iterations 2
DILUPBiCG:  Solving for T, Initial residual = 3.87367e-06, Final residual = 3.1764e-10, No Iterations 2
 T goes from min(T) [0 0 0 0 0 0 0] -0.150209 to max(T) [0 0 0 0 0 0 0] 0.912206

ExecutionTime = 310.34 s  ClockTime = 2888 s

Time = 5.69
Courant Number mean: 0.716503 max: 1.38021
DILUPBiCG:  Solving for T, Initial residual = 0.017048, Final residual = 2.3129e-09, No Iterations 4
DILUPBiCG:  Solving for T, Initial residual = 0.000451345, Final residual = 2.39381e-09, No Iterations 3
DILUPBiCG:  Solving for T, Initial residual = 3.28234e-05, Final residual = 4.4493e-09, No Iterations 2
DILUPBiCG:  Solving for T, Initial residual = 3.93876e-06, Final residual = 3.60882e-10, No Iterations 2
 T goes from min(T) [0 0 0 0 0 0 0] -0.151551 to max(T) [0 0 0 0 0 0 0] 0.911646

ExecutionTime = 310.86 s  ClockTime = 2892 s

Time = 5.7
Courant Number mean: 0.715551 max: 1.37757
DILUPBiCG:  Solving for T, Initial residual = 0.0171475, Final residual = 9.26339e-09, No Iterations 4
DILUPBiCG:  Solving for T, Initial residual = 0.000456503, Final residual = 3.84178e-11, No Iterations 4
DILUPBiCG:  Solving for T, Initial residual = 3.33332e-05, Final residual = 1.63183e-10, No Iterations 3
DILUPBiCG:  Solving for T, Initial residual = 3.99922e-06, Final residual = 2.01677e-09, No Iterations 2
 T goes from min(T) [0 0 0 0 0 0 0] -0.149941 to max(T) [0 0 0 0 0 0 0] 0.910934

ExecutionTime = 311.39 s  ClockTime = 2895 s

Time = 5.71
Courant Number mean: 0.714678 max: 1.37489
DILUPBiCG:  Solving for T, Initial residual = 0.0172423, Final residual = 1.88889e-09, No Iterations 4
DILUPBiCG:  Solving for T, Initial residual = 0.000462081, Final residual = 4.11482e-09, No Iterations 3
DILUPBiCG:  Solving for T, Initial residual = 3.37424e-05, Final residual = 2.47863e-10, No Iterations 3
DILUPBiCG:  Solving for T, Initial residual = 4.05251e-06, Final residual = 5.82037e-09, No Iterations 2
 T goes from min(T) [0 0 0 0 0 0 0] -0.150485 to max(T) [0 0 0 0 0 0 0] 0.911151

ExecutionTime = 311.92 s  ClockTime = 2898 s

Time = 5.72
Courant Number mean: 0.713694 max: 1.37218
DILUPBiCG:  Solving for T, Initial residual = 0.0173328, Final residual = 1.76874e-09, No Iterations 4
DILUPBiCG:  Solving for T, Initial residual = 0.000466242, Final residual = 2.42097e-09, No Iterations 3
DILUPBiCG:  Solving for T, Initial residual = 3.43293e-05, Final residual = 3.79072e-09, No Iterations 2
DILUPBiCG:  Solving for T, Initial residual = 4.11823e-06, Final residual = 3.08788e-10, No Iterations 2
 T goes from min(T) [0 0 0 0 0 0 0] -0.150414 to max(T) [0 0 0 0 0 0 0] 0.910889

ExecutionTime = 312.44 s  ClockTime = 2901 s

Time = 5.73
Courant Number mean: 0.71281 max: 1.36943
DILUPBiCG:  Solving for T, Initial residual = 0.0174253, Final residual = 1.71882e-09, No Iterations 4
DILUPBiCG:  Solving for T, Initial residual = 0.000471497, Final residual = 1.27103e-09, No Iterations 3
DILUPBiCG:  Solving for T, Initial residual = 3.48045e-05, Final residual = 3.40079e-09, No Iterations 2
DILUPBiCG:  Solving for T, Initial residual = 4.17765e-06, Final residual = 2.98378e-10, No Iterations 2
 T goes from min(T) [0 0 0 0 0 0 0] -0.14883 to max(T) [0 0 0 0 0 0 0] 0.910146

ExecutionTime = 313.03 s  ClockTime = 2905 s

Time = 5.74
Courant Number mean: 0.711792 max: 1.36665
DILUPBiCG:  Solving for T, Initial residual = 0.0175262, Final residual = 2.58172e-09, No Iterations 4
DILUPBiCG:  Solving for T, Initial residual = 0.000476784, Final residual = 1.21763e-09, No Iterations 3
DILUPBiCG:  Solving for T, Initial residual = 3.51843e-05, Final residual = 3.33498e-09, No Iterations 2
DILUPBiCG:  Solving for T, Initial residual = 4.24368e-06, Final residual = 3.13789e-10, No Iterations 2
 T goes from min(T) [0 0 0 0 0 0 0] -0.15025 to max(T) [0 0 0 0 0 0 0] 0.90999

ExecutionTime = 313.56 s  ClockTime = 2907 s

Time = 5.75
Courant Number mean: 0.710901 max: 1.36382
DILUPBiCG:  Solving for T, Initial residual = 0.017628, Final residual = 1.56958e-09, No Iterations 4
DILUPBiCG:  Solving for T, Initial residual = 0.00048094, Final residual = 1.18295e-09, No Iterations 3
DILUPBiCG:  Solving for T, Initial residual = 3.58296e-05, Final residual = 3.42488e-09, No Iterations 2
DILUPBiCG:  Solving for T, Initial residual = 4.28498e-06, Final residual = 3.26723e-10, No Iterations 2
 T goes from min(T) [0 0 0 0 0 0 0] -0.147676 to max(T) [0 0 0 0 0 0 0] 0.910149

ExecutionTime = 314.11 s  ClockTime = 2910 s

Time = 5.76
Courant Number mean: 0.709861 max: 1.36099
DILUPBiCG:  Solving for T, Initial residual = 0.0177248, Final residual = 1.49749e-09, No Iterations 4
DILUPBiCG:  Solving for T, Initial residual = 0.000486203, Final residual = 1.16526e-09, No Iterations 3
DILUPBiCG:  Solving for T, Initial residual = 3.62541e-05, Final residual = 2.83575e-10, No Iterations 3
DILUPBiCG:  Solving for T, Initial residual = 4.3597e-06, Final residual = 2.94412e-10, No Iterations 2
 T goes from min(T) [0 0 0 0 0 0 0] -0.149477 to max(T) [0 0 0 0 0 0 0] 0.909797

ExecutionTime = 314.68 s  ClockTime = 2913 s

Time = 5.77
Courant Number mean: 0.70895 max: 1.35811
DILUPBiCG:  Solving for T, Initial residual = 0.0178297, Final residual = 1.45236e-09, No Iterations 4
DILUPBiCG:  Solving for T, Initial residual = 0.000490703, Final residual = 1.16225e-09, No Iterations 3
DILUPBiCG:  Solving for T, Initial residual = 3.66418e-05, Final residual = 9.85113e-11, No Iterations 3
DILUPBiCG:  Solving for T, Initial residual = 4.41901e-06, Final residual = 2.91602e-10, No Iterations 2
 T goes from min(T) [0 0 0 0 0 0 0] -0.14826 to max(T) [0 0 0 0 0 0 0] 0.90895

ExecutionTime = 315.23 s  ClockTime = 2916 s

Time = 5.78
Courant Number mean: 0.707902 max: 1.3552
DILUPBiCG:  Solving for T, Initial residual = 0.017932, Final residual = 1.42157e-09, No Iterations 4
DILUPBiCG:  Solving for T, Initial residual = 0.000495443, Final residual = 1.16049e-09, No Iterations 3
DILUPBiCG:  Solving for T, Initial residual = 3.72673e-05, Final residual = 9.46122e-11, No Iterations 3
DILUPBiCG:  Solving for T, Initial residual = 4.4479e-06, Final residual = 3.0365e-10, No Iterations 2
 T goes from min(T) [0 0 0 0 0 0 0] -0.148276 to max(T) [0 0 0 0 0 0 0] 0.90783

ExecutionTime = 315.75 s  ClockTime = 2918 s

Time = 5.79
Courant Number mean: 0.706957 max: 1.35225
DILUPBiCG:  Solving for T, Initial residual = 0.0180287, Final residual = 1.40926e-09, No Iterations 4
DILUPBiCG:  Solving for T, Initial residual = 0.000500214, Final residual = 1.14763e-09, No Iterations 3
DILUPBiCG:  Solving for T, Initial residual = 3.75968e-05, Final residual = 7.0765e-10, No Iterations 3
DILUPBiCG:  Solving for T, Initial residual = 4.53785e-06, Final residual = 3.75722e-10, No Iterations 2
 T goes from min(T) [0 0 0 0 0 0 0] -0.148404 to max(T) [0 0 0 0 0 0 0] 0.908183

ExecutionTime = 316.36 s  ClockTime = 2921 s

Time = 5.8
Courant Number mean: 0.705903 max: 1.34928
DILUPBiCG:  Solving for T, Initial residual = 0.0181325, Final residual = 1.4142e-09, No Iterations 4
DILUPBiCG:  Solving for T, Initial residual = 0.000505144, Final residual = 1.13197e-09, No Iterations 3
DILUPBiCG:  Solving for T, Initial residual = 3.81016e-05, Final residual = 1.37157e-10, No Iterations 3
DILUPBiCG:  Solving for T, Initial residual = 4.58695e-06, Final residual = 8.66056e-10, No Iterations 2
 T goes from min(T) [0 0 0 0 0 0 0] -0.146738 to max(T) [0 0 0 0 0 0 0] 0.90803

ExecutionTime = 316.92 s  ClockTime = 2924 s

Time = 5.81
Courant Number mean: 0.704926 max: 1.34626
DILUPBiCG:  Solving for T, Initial residual = 0.0182317, Final residual = 1.4228e-09, No Iterations 4
DILUPBiCG:  Solving for T, Initial residual = 0.00050927, Final residual = 1.11683e-09, No Iterations 3
DILUPBiCG:  Solving for T, Initial residual = 3.86101e-05, Final residual = 7.59779e-11, No Iterations 3
DILUPBiCG:  Solving for T, Initial residual = 4.61676e-06, Final residual = 7.05449e-10, No Iterations 2
 T goes from min(T) [0 0 0 0 0 0 0] -0.148217 to max(T) [0 0 0 0 0 0 0] 0.907412

ExecutionTime = 317.47 s  ClockTime = 2927 s

Time = 5.82
Courant Number mean: 0.703864 max: 1.34321
DILUPBiCG:  Solving for T, Initial residual = 0.0183403, Final residual = 1.39388e-09, No Iterations 4
DILUPBiCG:  Solving for T, Initial residual = 0.00051357, Final residual = 1.10491e-09, No Iterations 3
DILUPBiCG:  Solving for T, Initial residual = 3.89877e-05, Final residual = 7.68987e-11, No Iterations 3
DILUPBiCG:  Solving for T, Initial residual = 4.70389e-06, Final residual = 4.19013e-10, No Iterations 2
 T goes from min(T) [0 0 0 0 0 0 0] -0.145067 to max(T) [0 0 0 0 0 0 0] 0.906361

ExecutionTime = 318.05 s  ClockTime = 2930 s

Time = 5.83
Courant Number mean: 0.702859 max: 1.34012
DILUPBiCG:  Solving for T, Initial residual = 0.0184435, Final residual = 1.35543e-09, No Iterations 4
DILUPBiCG:  Solving for T, Initial residual = 0.000519351, Final residual = 1.0976e-09, No Iterations 3
DILUPBiCG:  Solving for T, Initial residual = 3.95099e-05, Final residual = 9.62233e-11, No Iterations 3
DILUPBiCG:  Solving for T, Initial residual = 4.74221e-06, Final residual = 3.71267e-10, No Iterations 2
 T goes from min(T) [0 0 0 0 0 0 0] -0.1478 to max(T) [0 0 0 0 0 0 0] 0.905886

ExecutionTime = 318.58 s  ClockTime = 2932 s

Time = 5.84
Courant Number mean: 0.701793 max: 1.337
DILUPBiCG:  Solving for T, Initial residual = 0.0185549, Final residual = 1.34258e-09, No Iterations 4
DILUPBiCG:  Solving for T, Initial residual = 0.000522207, Final residual = 1.08892e-09, No Iterations 3
DILUPBiCG:  Solving for T, Initial residual = 3.9936e-05, Final residual = 2.95188e-10, No Iterations 3
DILUPBiCG:  Solving for T, Initial residual = 4.781e-06, Final residual = 3.82824e-10, No Iterations 2
 T goes from min(T) [0 0 0 0 0 0 0] -0.144342 to max(T) [0 0 0 0 0 0 0] 0.906329

ExecutionTime = 319.13 s  ClockTime = 2935 s

Time = 5.85
Courant Number mean: 0.700758 max: 1.33385
DILUPBiCG:  Solving for T, Initial residual = 0.0186651, Final residual = 1.40587e-09, No Iterations 4
DILUPBiCG:  Solving for T, Initial residual = 0.000527725, Final residual = 1.08223e-09, No Iterations 3
DILUPBiCG:  Solving for T, Initial residual = 4.03196e-05, Final residual = 2.03195e-10, No Iterations 3
DILUPBiCG:  Solving for T, Initial residual = 4.85085e-06, Final residual = 4.54079e-10, No Iterations 2
 T goes from min(T) [0 0 0 0 0 0 0] -0.147243 to max(T) [0 0 0 0 0 0 0] 0.9062

ExecutionTime = 319.65 s  ClockTime = 2938 s

Time = 5.86
Courant Number mean: 0.699685 max: 1.33066
DILUPBiCG:  Solving for T, Initial residual = 0.0187618, Final residual = 1.67612e-09, No Iterations 4
DILUPBiCG:  Solving for T, Initial residual = 0.000532051, Final residual = 1.07415e-09, No Iterations 3
DILUPBiCG:  Solving for T, Initial residual = 4.07994e-05, Final residual = 9.13554e-11, No Iterations 3
DILUPBiCG:  Solving for T, Initial residual = 4.89577e-06, Final residual = 6.4884e-10, No Iterations 2
 T goes from min(T) [0 0 0 0 0 0 0] -0.144519 to max(T) [0 0 0 0 0 0 0] 0.905559

ExecutionTime = 320.17 s  ClockTime = 2940 s

Time = 5.87
Courant Number mean: 0.698621 max: 1.32744
DILUPBiCG:  Solving for T, Initial residual = 0.0188786, Final residual = 2.34011e-09, No Iterations 4
DILUPBiCG:  Solving for T, Initial residual = 0.00053583, Final residual = 1.06368e-09, No Iterations 3
DILUPBiCG:  Solving for T, Initial residual = 4.12364e-05, Final residual = 7.70233e-11, No Iterations 3
DILUPBiCG:  Solving for T, Initial residual = 4.92684e-06, Final residual = 8.73184e-10, No Iterations 2
 T goes from min(T) [0 0 0 0 0 0 0] -0.146622 to max(T) [0 0 0 0 0 0 0] 0.904457

ExecutionTime = 320.68 s  ClockTime = 2943 s

Time = 5.88
Courant Number mean: 0.697541 max: 1.32418
DILUPBiCG:  Solving for T, Initial residual = 0.0189783, Final residual = 2.58393e-09, No Iterations 4
DILUPBiCG:  Solving for T, Initial residual = 0.000540723, Final residual = 1.05627e-09, No Iterations 3
DILUPBiCG:  Solving for T, Initial residual = 4.15271e-05, Final residual = 7.4248e-11, No Iterations 3
DILUPBiCG:  Solving for T, Initial residual = 4.99778e-06, Final residual = 8.26836e-10, No Iterations 2
 T goes from min(T) [0 0 0 0 0 0 0] -0.144465 to max(T) [0 0 0 0 0 0 0] 0.902939

ExecutionTime = 321.2 s  ClockTime = 2946 s

Time = 5.89
Courant Number mean: 0.696448 max: 1.32089
DILUPBiCG:  Solving for T, Initial residual = 0.0191003, Final residual = 2.59884e-09, No Iterations 4
DILUPBiCG:  Solving for T, Initial residual = 0.000545393, Final residual = 1.04814e-09, No Iterations 3
DILUPBiCG:  Solving for T, Initial residual = 4.21416e-05, Final residual = 7.56057e-11, No Iterations 3
DILUPBiCG:  Solving for T, Initial residual = 5.02731e-06, Final residual = 8.08809e-10, No Iterations 2
 T goes from min(T) [0 0 0 0 0 0 0] -0.145997 to max(T) [0 0 0 0 0 0 0] 0.903614

ExecutionTime = 321.72 s  ClockTime = 2948 s

Time = 5.9
Courant Number mean: 0.695363 max: 1.31757
DILUPBiCG:  Solving for T, Initial residual = 0.0192031, Final residual = 4.37819e-09, No Iterations 4
DILUPBiCG:  Solving for T, Initial residual = 0.000548476, Final residual = 1.04084e-09, No Iterations 3
DILUPBiCG:  Solving for T, Initial residual = 4.2375e-05, Final residual = 7.97826e-11, No Iterations 3
DILUPBiCG:  Solving for T, Initial residual = 5.07228e-06, Final residual = 9.94663e-10, No Iterations 2
 T goes from min(T) [0 0 0 0 0 0 0] -0.14423 to max(T) [0 0 0 0 0 0 0] 0.903884

ExecutionTime = 322.24 s  ClockTime = 2951 s

Time = 5.91
Courant Number mean: 0.694241 max: 1.31421
DILUPBiCG:  Solving for T, Initial residual = 0.0193224, Final residual = 4.62748e-09, No Iterations 4
DILUPBiCG:  Solving for T, Initial residual = 0.000553594, Final residual = 1.03586e-09, No Iterations 3
DILUPBiCG:  Solving for T, Initial residual = 4.27662e-05, Final residual = 8.91555e-11, No Iterations 3
DILUPBiCG:  Solving for T, Initial residual = 5.12886e-06, Final residual = 1.9034e-09, No Iterations 2
 T goes from min(T) [0 0 0 0 0 0 0] -0.145413 to max(T) [0 0 0 0 0 0 0] 0.903513

ExecutionTime = 322.75 s  ClockTime = 2953 s

Time = 5.92
Courant Number mean: 0.693151 max: 1.31082
DILUPBiCG:  Solving for T, Initial residual = 0.0194297, Final residual = 2.26152e-09, No Iterations 4
DILUPBiCG:  Solving for T, Initial residual = 0.000558214, Final residual = 1.02971e-09, No Iterations 3
DILUPBiCG:  Solving for T, Initial residual = 4.33553e-05, Final residual = 8.76764e-09, No Iterations 2
DILUPBiCG:  Solving for T, Initial residual = 5.14717e-06, Final residual = 7.31283e-09, No Iterations 2
 T goes from min(T) [0 0 0 0 0 0 0] -0.143849 to max(T) [0 0 0 0 0 0 0] 0.902587

ExecutionTime = 323.27 s  ClockTime = 2956 s

Time = 5.93
Courant Number mean: 0.692003 max: 1.30739
DILUPBiCG:  Solving for T, Initial residual = 0.0195436, Final residual = 1.94729e-09, No Iterations 4
DILUPBiCG:  Solving for T, Initial residual = 0.00056082, Final residual = 1.02532e-09, No Iterations 3
DILUPBiCG:  Solving for T, Initial residual = 4.34384e-05, Final residual = 7.22088e-09, No Iterations 2
DILUPBiCG:  Solving for T, Initial residual = 5.20715e-06, Final residual = 1.18055e-09, No Iterations 2
 T goes from min(T) [0 0 0 0 0 0 0] -0.144953 to max(T) [0 0 0 0 0 0 0] 0.901285

ExecutionTime = 323.79 s  ClockTime = 2958 s

Time = 5.94
Courant Number mean: 0.690909 max: 1.30393
DILUPBiCG:  Solving for T, Initial residual = 0.0196677, Final residual = 2.53951e-09, No Iterations 4
DILUPBiCG:  Solving for T, Initial residual = 0.000566664, Final residual = 1.02043e-09, No Iterations 3
DILUPBiCG:  Solving for T, Initial residual = 4.40324e-05, Final residual = 6.40395e-09, No Iterations 2
DILUPBiCG:  Solving for T, Initial residual = 5.23092e-06, Final residual = 7.24194e-10, No Iterations 2
 T goes from min(T) [0 0 0 0 0 0 0] -0.143343 to max(T) [0 0 0 0 0 0 0] 0.899678

ExecutionTime = 324.35 s  ClockTime = 2961 s

Time = 5.95
Courant Number mean: 0.689734 max: 1.30044
DILUPBiCG:  Solving for T, Initial residual = 0.0197737, Final residual = 3.462e-09, No Iterations 4
DILUPBiCG:  Solving for T, Initial residual = 0.00056939, Final residual = 1.0143e-09, No Iterations 3
DILUPBiCG:  Solving for T, Initial residual = 4.42875e-05, Final residual = 5.77439e-09, No Iterations 2
DILUPBiCG:  Solving for T, Initial residual = 5.28578e-06, Final residual = 5.35348e-10, No Iterations 2
 T goes from min(T) [0 0 0 0 0 0 0] -0.144554 to max(T) [0 0 0 0 0 0 0] 0.899833

ExecutionTime = 324.87 s  ClockTime = 2964 s

Time = 5.96
Courant Number mean: 0.68864 max: 1.29692
DILUPBiCG:  Solving for T, Initial residual = 0.0198912, Final residual = 1.41602e-09, No Iterations 4
DILUPBiCG:  Solving for T, Initial residual = 0.00057431, Final residual = 1.03344e-09, No Iterations 3
DILUPBiCG:  Solving for T, Initial residual = 4.4657e-05, Final residual = 5.30288e-09, No Iterations 2
DILUPBiCG:  Solving for T, Initial residual = 5.30524e-06, Final residual = 4.61836e-10, No Iterations 2
 T goes from min(T) [0 0 0 0 0 0 0] -0.142717 to max(T) [0 0 0 0 0 0 0] 0.900794

ExecutionTime = 325.43 s  ClockTime = 2967 s

Time = 5.97
Courant Number mean: 0.687444 max: 1.29336
DILUPBiCG:  Solving for T, Initial residual = 0.0200037, Final residual = 1.18699e-09, No Iterations 4
DILUPBiCG:  Solving for T, Initial residual = 0.000578303, Final residual = 1.05138e-09, No Iterations 3
DILUPBiCG:  Solving for T, Initial residual = 4.50288e-05, Final residual = 4.94493e-09, No Iterations 2
DILUPBiCG:  Solving for T, Initial residual = 5.3452e-06, Final residual = 4.04791e-10, No Iterations 2
 T goes from min(T) [0 0 0 0 0 0 0] -0.144152 to max(T) [0 0 0 0 0 0 0] 0.900854

ExecutionTime = 326.05 s  ClockTime = 2970 s

Time = 5.98
Courant Number mean: 0.686341 max: 1.28977
DILUPBiCG:  Solving for T, Initial residual = 0.0201233, Final residual = 1.0974e-09, No Iterations 4
DILUPBiCG:  Solving for T, Initial residual = 0.000581423, Final residual = 1.07853e-09, No Iterations 3
DILUPBiCG:  Solving for T, Initial residual = 4.5286e-05, Final residual = 4.56154e-09, No Iterations 2
DILUPBiCG:  Solving for T, Initial residual = 5.39206e-06, Final residual = 3.74784e-10, No Iterations 2
 T goes from min(T) [0 0 0 0 0 0 0] -0.141981 to max(T) [0 0 0 0 0 0 0] 0.900504

ExecutionTime = 326.57 s  ClockTime = 2972 s

Time = 5.99
Courant Number mean: 0.685121 max: 1.28615
DILUPBiCG:  Solving for T, Initial residual = 0.0202363, Final residual = 1.03586e-09, No Iterations 4
DILUPBiCG:  Solving for T, Initial residual = 0.000586415, Final residual = 1.11308e-09, No Iterations 3
DILUPBiCG:  Solving for T, Initial residual = 4.56514e-05, Final residual = 4.22396e-09, No Iterations 2
DILUPBiCG:  Solving for T, Initial residual = 5.40453e-06, Final residual = 3.51725e-10, No Iterations 2
 T goes from min(T) [0 0 0 0 0 0 0] -0.143703 to max(T) [0 0 0 0 0 0 0] 0.899533

ExecutionTime = 327.13 s  ClockTime = 2975 s

Time = 6
Courant Number mean: 0.684019 max: 1.2825
DILUPBiCG:  Solving for T, Initial residual = 0.020363, Final residual = 9.8834e-10, No Iterations 4
DILUPBiCG:  Solving for T, Initial residual = 0.000590252, Final residual = 1.14751e-09, No Iterations 3
DILUPBiCG:  Solving for T, Initial residual = 4.6039e-05, Final residual = 3.97863e-09, No Iterations 2
DILUPBiCG:  Solving for T, Initial residual = 5.44319e-06, Final residual = 3.28889e-10, No Iterations 2
 T goes from min(T) [0 0 0 0 0 0 0] -0.141724 to max(T) [0 0 0 0 0 0 0] 0.898011

ExecutionTime = 327.71 s  ClockTime = 2978 s

End

