/*---------------------------------------------------------------------------*\
| =========                 |                                                 |
| \\      /  F ield         | OpenFOAM: The Open Source CFD Toolbox           |
|  \\    /   O peration     | Version:  dev                                   |
|   \\  /    A nd           | Web:      www.OpenFOAM.org                      |
|    \\/     M anipulation  |                                                 |
\*---------------------------------------------------------------------------*/
Build  : dev-90f39e0d894d
Exec   : scalarDeformationWithGhosts implicit -case orthogonal/120x60/c1_implicit
Date   : May 23 2017
Time   : 20:31:17
Host   : "sws02hw.private.rdg.ac.uk"
PID    : 22912
Case   : orthogonal/120x60/c1_implicit
nProcs : 1
sigFpe : Enabling floating point exception trapping (FOAM_SIGFPE).
fileModificationChecking : Monitoring run-time modified files using timeStampMaster (fileModificationSkew 10)
allowSystemOperations : Allowing user-supplied system call operations

// * * * * * * * * * * * * * * * * * * * * * * * * * * * * * * * * * * * * * //
Create time

Create mesh for time = 0

Reading field T

Reading fields phi (compulsory), U and Uf (optional)

Calculating owner stencils
Calculating neighbour stencils

Calculating scalar transport

Courant Number mean: 0.374505 max: 0.73529
Time = 0.01
Courant Number mean: 0.374466 max: 0.735395
DILUPBiCG:  Solving for T, Initial residual = 0.013462, Final residual = 2.76786e-10, No Iterations 4
DILUPBiCG:  Solving for T, Initial residual = 0.000120269, Final residual = 4.6275e-11, No Iterations 3
DILUPBiCG:  Solving for T, Initial residual = 8.97372e-07, Final residual = 7.19189e-09, No Iterations 1
DILUPBiCG:  Solving for T, Initial residual = 1.62719e-08, Final residual = 1.44064e-10, No Iterations 1
 T goes from min(T) [0 0 0 0 0 0 0] 1.33178e-20 to max(T) [0 0 0 0 0 0 0] 0.953205

ExecutionTime = 2.17 s  ClockTime = 28 s

Time = 0.02
Courant Number mean: 0.374335 max: 0.735274
DILUPBiCG:  Solving for T, Initial residual = 0.0134565, Final residual = 1.05479e-10, No Iterations 4
DILUPBiCG:  Solving for T, Initial residual = 0.000120392, Final residual = 4.54184e-11, No Iterations 3
DILUPBiCG:  Solving for T, Initial residual = 9.01713e-07, Final residual = 7.12041e-09, No Iterations 1
DILUPBiCG:  Solving for T, Initial residual = 1.64265e-08, Final residual = 1.43042e-10, No Iterations 1
 T goes from min(T) [0 0 0 0 0 0 0] 1.36971e-20 to max(T) [0 0 0 0 0 0 0] 0.953628

ExecutionTime = 2.34 s  ClockTime = 31 s

Time = 0.03
Courant Number mean: 0.374423 max: 0.735315
DILUPBiCG:  Solving for T, Initial residual = 0.0134598, Final residual = 6.53976e-11, No Iterations 4
DILUPBiCG:  Solving for T, Initial residual = 0.000120707, Final residual = 4.41362e-11, No Iterations 3
DILUPBiCG:  Solving for T, Initial residual = 9.10506e-07, Final residual = 7.06633e-09, No Iterations 1
DILUPBiCG:  Solving for T, Initial residual = 1.6612e-08, Final residual = 1.43756e-10, No Iterations 1
 T goes from min(T) [0 0 0 0 0 0 0] 1.77022e-20 to max(T) [0 0 0 0 0 0 0] 0.950986

ExecutionTime = 2.47 s  ClockTime = 34 s

Time = 0.04
Courant Number mean: 0.374448 max: 0.735167
DILUPBiCG:  Solving for T, Initial residual = 0.0134716, Final residual = 4.84794e-11, No Iterations 4
DILUPBiCG:  Solving for T, Initial residual = 0.000120916, Final residual = 4.26799e-11, No Iterations 3
DILUPBiCG:  Solving for T, Initial residual = 9.17608e-07, Final residual = 7.00861e-09, No Iterations 1
DILUPBiCG:  Solving for T, Initial residual = 1.69495e-08, Final residual = 1.51485e-10, No Iterations 1
 T goes from min(T) [0 0 0 0 0 0 0] 1.84965e-20 to max(T) [0 0 0 0 0 0 0] 0.951495

ExecutionTime = 2.62 s  ClockTime = 37 s

Time = 0.05
Courant Number mean: 0.374393 max: 0.735155
DILUPBiCG:  Solving for T, Initial residual = 0.0134789, Final residual = 3.90685e-11, No Iterations 4
DILUPBiCG:  Solving for T, Initial residual = 0.000121317, Final residual = 4.11796e-11, No Iterations 3
DILUPBiCG:  Solving for T, Initial residual = 9.28885e-07, Final residual = 6.96341e-09, No Iterations 1
DILUPBiCG:  Solving for T, Initial residual = 1.73342e-08, Final residual = 1.60743e-10, No Iterations 1
 T goes from min(T) [0 0 0 0 0 0 0] 1.81553e-20 to max(T) [0 0 0 0 0 0 0] 0.952923

ExecutionTime = 2.76 s  ClockTime = 40 s

Time = 0.06
Courant Number mean: 0.374247 max: 0.734991
DILUPBiCG:  Solving for T, Initial residual = 0.0134826, Final residual = 3.27978e-11, No Iterations 4
DILUPBiCG:  Solving for T, Initial residual = 0.000121789, Final residual = 3.95112e-11, No Iterations 3
DILUPBiCG:  Solving for T, Initial residual = 9.41606e-07, Final residual = 6.92629e-09, No Iterations 1
DILUPBiCG:  Solving for T, Initial residual = 1.78111e-08, Final residual = 1.7089e-10, No Iterations 1
 T goes from min(T) [0 0 0 0 0 0 0] 2.17982e-20 to max(T) [0 0 0 0 0 0 0] 0.951081

ExecutionTime = 2.91 s  ClockTime = 43 s

Time = 0.07
Courant Number mean: 0.374264 max: 0.734918
DILUPBiCG:  Solving for T, Initial residual = 0.0134946, Final residual = 2.80968e-11, No Iterations 4
DILUPBiCG:  Solving for T, Initial residual = 0.000122324, Final residual = 3.7498e-11, No Iterations 3
DILUPBiCG:  Solving for T, Initial residual = 9.56726e-07, Final residual = 6.89907e-09, No Iterations 1
DILUPBiCG:  Solving for T, Initial residual = 1.83061e-08, Final residual = 1.81056e-10, No Iterations 1
 T goes from min(T) [0 0 0 0 0 0 0] 2.48958e-20 to max(T) [0 0 0 0 0 0 0] 0.953065

ExecutionTime = 3.04 s  ClockTime = 46 s

Time = 0.08
Courant Number mean: 0.374275 max: 0.734725
DILUPBiCG:  Solving for T, Initial residual = 0.0135029, Final residual = 2.41741e-11, No Iterations 4
DILUPBiCG:  Solving for T, Initial residual = 0.000122871, Final residual = 3.52468e-11, No Iterations 3
DILUPBiCG:  Solving for T, Initial residual = 9.72998e-07, Final residual = 6.87286e-09, No Iterations 1
DILUPBiCG:  Solving for T, Initial residual = 1.89745e-08, Final residual = 1.91702e-10, No Iterations 1
 T goes from min(T) [0 0 0 0 0 0 0] 2.33882e-20 to max(T) [0 0 0 0 0 0 0] 0.952122

ExecutionTime = 3.18 s  ClockTime = 49 s

Time = 0.09
Courant Number mean: 0.374204 max: 0.734597
DILUPBiCG:  Solving for T, Initial residual = 0.0135101, Final residual = 2.07919e-11, No Iterations 4
DILUPBiCG:  Solving for T, Initial residual = 0.000123567, Final residual = 3.29973e-11, No Iterations 3
DILUPBiCG:  Solving for T, Initial residual = 9.90918e-07, Final residual = 6.84342e-09, No Iterations 1
DILUPBiCG:  Solving for T, Initial residual = 1.96858e-08, Final residual = 2.02926e-10, No Iterations 1
 T goes from min(T) [0 0 0 0 0 0 0] 2.61757e-20 to max(T) [0 0 0 0 0 0 0] 0.950432

ExecutionTime = 3.31 s  ClockTime = 52 s

Time = 0.1
Courant Number mean: 0.374043 max: 0.734389
DILUPBiCG:  Solving for T, Initial residual = 0.0135189, Final residual = 4.38541e-09, No Iterations 3
DILUPBiCG:  Solving for T, Initial residual = 0.000124236, Final residual = 3.06184e-11, No Iterations 3
DILUPBiCG:  Solving for T, Initial residual = 1.01121e-06, Final residual = 6.82234e-09, No Iterations 1
DILUPBiCG:  Solving for T, Initial residual = 2.0415e-08, Final residual = 2.14157e-10, No Iterations 1
 T goes from min(T) [0 0 0 0 0 0 0] 3.23406e-20 to max(T) [0 0 0 0 0 0 0] 0.953482

ExecutionTime = 3.44 s  ClockTime = 55 s

Time = 0.11
Courant Number mean: 0.37399 max: 0.734202
DILUPBiCG:  Solving for T, Initial residual = 0.0135255, Final residual = 2.34628e-09, No Iterations 3
DILUPBiCG:  Solving for T, Initial residual = 0.000124875, Final residual = 2.81848e-11, No Iterations 3
DILUPBiCG:  Solving for T, Initial residual = 1.03353e-06, Final residual = 6.81827e-09, No Iterations 1
DILUPBiCG:  Solving for T, Initial residual = 2.11974e-08, Final residual = 2.25081e-10, No Iterations 1
 T goes from min(T) [0 0 0 0 0 0 0] 2.90124e-20 to max(T) [0 0 0 0 0 0 0] 0.953735

ExecutionTime = 3.58 s  ClockTime = 58 s

Time = 0.12
Courant Number mean: 0.373987 max: 0.733965
DILUPBiCG:  Solving for T, Initial residual = 0.0135324, Final residual = 1.57485e-09, No Iterations 3
DILUPBiCG:  Solving for T, Initial residual = 0.000125706, Final residual = 2.59024e-11, No Iterations 3
DILUPBiCG:  Solving for T, Initial residual = 1.05523e-06, Final residual = 6.80154e-09, No Iterations 1
DILUPBiCG:  Solving for T, Initial residual = 2.21117e-08, Final residual = 2.3599e-10, No Iterations 1
 T goes from min(T) [0 0 0 0 0 0 0] 3.03536e-20 to max(T) [0 0 0 0 0 0 0] 0.950777

ExecutionTime = 3.71 s  ClockTime = 61 s

Time = 0.13
Courant Number mean: 0.373899 max: 0.733721
DILUPBiCG:  Solving for T, Initial residual = 0.0135399, Final residual = 1.24763e-09, No Iterations 3
DILUPBiCG:  Solving for T, Initial residual = 0.000126561, Final residual = 2.37066e-11, No Iterations 3
DILUPBiCG:  Solving for T, Initial residual = 1.0797e-06, Final residual = 6.78099e-09, No Iterations 1
DILUPBiCG:  Solving for T, Initial residual = 2.30974e-08, Final residual = 2.47841e-10, No Iterations 1
 T goes from min(T) [0 0 0 0 0 0 0] 3.65841e-20 to max(T) [0 0 0 0 0 0 0] 0.953147

ExecutionTime = 3.85 s  ClockTime = 63 s

Time = 0.14
Courant Number mean: 0.373725 max: 0.733469
DILUPBiCG:  Solving for T, Initial residual = 0.013544, Final residual = 1.10553e-09, No Iterations 3
DILUPBiCG:  Solving for T, Initial residual = 0.000127403, Final residual = 2.18705e-11, No Iterations 3
DILUPBiCG:  Solving for T, Initial residual = 1.10639e-06, Final residual = 6.77492e-09, No Iterations 1
DILUPBiCG:  Solving for T, Initial residual = 2.41215e-08, Final residual = 2.59154e-10, No Iterations 1
 T goes from min(T) [0 0 0 0 0 0 0] 3.52917e-20 to max(T) [0 0 0 0 0 0 0] 0.954383

ExecutionTime = 3.98 s  ClockTime = 66 s

Time = 0.15
Courant Number mean: 0.373601 max: 0.733168
DILUPBiCG:  Solving for T, Initial residual = 0.0135428, Final residual = 1.0348e-09, No Iterations 3
DILUPBiCG:  Solving for T, Initial residual = 0.000128333, Final residual = 2.01353e-11, No Iterations 3
DILUPBiCG:  Solving for T, Initial residual = 1.13461e-06, Final residual = 6.77657e-09, No Iterations 1
DILUPBiCG:  Solving for T, Initial residual = 2.52292e-08, Final residual = 2.69937e-10, No Iterations 1
 T goes from min(T) [0 0 0 0 0 0 0] 3.45991e-20 to max(T) [0 0 0 0 0 0 0] 0.952541

ExecutionTime = 4.12 s  ClockTime = 69 s

Time = 0.16
Courant Number mean: 0.373584 max: 0.732888
DILUPBiCG:  Solving for T, Initial residual = 0.0135567, Final residual = 9.95889e-10, No Iterations 3
DILUPBiCG:  Solving for T, Initial residual = 0.000129268, Final residual = 1.85015e-11, No Iterations 3
DILUPBiCG:  Solving for T, Initial residual = 1.16232e-06, Final residual = 6.76044e-09, No Iterations 1
DILUPBiCG:  Solving for T, Initial residual = 2.63354e-08, Final residual = 2.80633e-10, No Iterations 1
 T goes from min(T) [0 0 0 0 0 0 0] 3.89852e-20 to max(T) [0 0 0 0 0 0 0] 0.952388

ExecutionTime = 4.26 s  ClockTime = 72 s

Time = 0.17
Courant Number mean: 0.373479 max: 0.732528
DILUPBiCG:  Solving for T, Initial residual = 0.0135542, Final residual = 9.71271e-10, No Iterations 3
DILUPBiCG:  Solving for T, Initial residual = 0.000130219, Final residual = 1.71791e-11, No Iterations 3
DILUPBiCG:  Solving for T, Initial residual = 1.19138e-06, Final residual = 6.75083e-09, No Iterations 1
DILUPBiCG:  Solving for T, Initial residual = 2.7526e-08, Final residual = 2.90413e-10, No Iterations 1
 T goes from min(T) [0 0 0 0 0 0 0] 4.2778e-20 to max(T) [0 0 0 0 0 0 0] 0.954454

ExecutionTime = 4.39 s  ClockTime = 75 s

Time = 0.18
Courant Number mean: 0.373292 max: 0.732232
DILUPBiCG:  Solving for T, Initial residual = 0.0135614, Final residual = 9.53169e-10, No Iterations 3
DILUPBiCG:  Solving for T, Initial residual = 0.00013114, Final residual = 1.81824e-11, No Iterations 3
DILUPBiCG:  Solving for T, Initial residual = 1.22468e-06, Final residual = 6.75846e-09, No Iterations 1
DILUPBiCG:  Solving for T, Initial residual = 2.88034e-08, Final residual = 3.01151e-10, No Iterations 1
 T goes from min(T) [0 0 0 0 0 0 0] 3.94303e-20 to max(T) [0 0 0 0 0 0 0] 0.953581

ExecutionTime = 4.52 s  ClockTime = 78 s

Time = 0.19
Courant Number mean: 0.373099 max: 0.731817
DILUPBiCG:  Solving for T, Initial residual = 0.0135542, Final residual = 9.42735e-10, No Iterations 3
DILUPBiCG:  Solving for T, Initial residual = 0.000132191, Final residual = 2.01623e-11, No Iterations 3
DILUPBiCG:  Solving for T, Initial residual = 1.25856e-06, Final residual = 6.76017e-09, No Iterations 1
DILUPBiCG:  Solving for T, Initial residual = 3.02531e-08, Final residual = 3.11936e-10, No Iterations 1
 T goes from min(T) [0 0 0 0 0 0 0] 4.15135e-20 to max(T) [0 0 0 0 0 0 0] 0.951392

ExecutionTime = 4.66 s  ClockTime = 81 s

Time = 0.2
Courant Number mean: 0.373065 max: 0.731493
DILUPBiCG:  Solving for T, Initial residual = 0.0135626, Final residual = 9.35248e-10, No Iterations 3
DILUPBiCG:  Solving for T, Initial residual = 0.000133307, Final residual = 2.19155e-11, No Iterations 3
DILUPBiCG:  Solving for T, Initial residual = 1.29065e-06, Final residual = 6.75773e-09, No Iterations 1
DILUPBiCG:  Solving for T, Initial residual = 3.15338e-08, Final residual = 3.20936e-10, No Iterations 1
 T goes from min(T) [0 0 0 0 0 0 0] 4.9094e-20 to max(T) [0 0 0 0 0 0 0] 0.9542

ExecutionTime = 4.78 s  ClockTime = 83 s

Time = 0.21
Courant Number mean: 0.372947 max: 0.731017
DILUPBiCG:  Solving for T, Initial residual = 0.0135643, Final residual = 9.28444e-10, No Iterations 3
DILUPBiCG:  Solving for T, Initial residual = 0.000134268, Final residual = 2.34361e-11, No Iterations 3
DILUPBiCG:  Solving for T, Initial residual = 1.32813e-06, Final residual = 6.76702e-09, No Iterations 1
DILUPBiCG:  Solving for T, Initial residual = 3.29788e-08, Final residual = 3.29107e-10, No Iterations 1
 T goes from min(T) [0 0 0 0 0 0 0] 4.54602e-20 to max(T) [0 0 0 0 0 0 0] 0.954208

ExecutionTime = 4.92 s  ClockTime = 86 s

Time = 0.22
Courant Number mean: 0.372744 max: 0.730678
DILUPBiCG:  Solving for T, Initial residual = 0.0135699, Final residual = 9.21592e-10, No Iterations 3
DILUPBiCG:  Solving for T, Initial residual = 0.000135567, Final residual = 2.47465e-11, No Iterations 3
DILUPBiCG:  Solving for T, Initial residual = 1.36622e-06, Final residual = 6.78551e-09, No Iterations 1
DILUPBiCG:  Solving for T, Initial residual = 3.45126e-08, Final residual = 3.39935e-10, No Iterations 1
 T goes from min(T) [0 0 0 0 0 0 0] 4.47573e-20 to max(T) [0 0 0 0 0 0 0] 0.951682

ExecutionTime = 5.04 s  ClockTime = 89 s

Time = 0.23
Courant Number mean: 0.372484 max: 0.730151
DILUPBiCG:  Solving for T, Initial residual = 0.0135583, Final residual = 9.13994e-10, No Iterations 3
DILUPBiCG:  Solving for T, Initial residual = 0.000136735, Final residual = 2.58224e-11, No Iterations 3
DILUPBiCG:  Solving for T, Initial residual = 1.40517e-06, Final residual = 6.79966e-09, No Iterations 1
DILUPBiCG:  Solving for T, Initial residual = 3.62563e-08, Final residual = 3.5082e-10, No Iterations 1
 T goes from min(T) [0 0 0 0 0 0 0] 4.97374e-20 to max(T) [0 0 0 0 0 0 0] 0.953631

ExecutionTime = 5.17 s  ClockTime = 91 s

Time = 0.24
Courant Number mean: 0.372433 max: 0.729782
DILUPBiCG:  Solving for T, Initial residual = 0.0135668, Final residual = 9.10659e-10, No Iterations 3
DILUPBiCG:  Solving for T, Initial residual = 0.000137879, Final residual = 2.67075e-11, No Iterations 3
DILUPBiCG:  Solving for T, Initial residual = 1.44474e-06, Final residual = 6.83136e-09, No Iterations 1
DILUPBiCG:  Solving for T, Initial residual = 3.77414e-08, Final residual = 3.60561e-10, No Iterations 1
 T goes from min(T) [0 0 0 0 0 0 0] 5.33337e-20 to max(T) [0 0 0 0 0 0 0] 0.954489

ExecutionTime = 5.31 s  ClockTime = 94 s

Time = 0.25
Courant Number mean: 0.372301 max: 0.729192
DILUPBiCG:  Solving for T, Initial residual = 0.0135657, Final residual = 9.08575e-10, No Iterations 3
DILUPBiCG:  Solving for T, Initial residual = 0.000138968, Final residual = 2.74937e-11, No Iterations 3
DILUPBiCG:  Solving for T, Initial residual = 1.48635e-06, Final residual = 6.84507e-09, No Iterations 1
DILUPBiCG:  Solving for T, Initial residual = 3.9394e-08, Final residual = 3.70077e-10, No Iterations 1
 T goes from min(T) [0 0 0 0 0 0 0] 4.92523e-20 to max(T) [0 0 0 0 0 0 0] 0.952928

ExecutionTime = 5.44 s  ClockTime = 97 s

Time = 0.26
Courant Number mean: 0.372081 max: 0.728808
DILUPBiCG:  Solving for T, Initial residual = 0.0135703, Final residual = 9.05078e-10, No Iterations 3
DILUPBiCG:  Solving for T, Initial residual = 0.00014033, Final residual = 2.80727e-11, No Iterations 3
DILUPBiCG:  Solving for T, Initial residual = 1.5263e-06, Final residual = 6.88483e-09, No Iterations 1
DILUPBiCG:  Solving for T, Initial residual = 4.12733e-08, Final residual = 3.80045e-10, No Iterations 1
 T goes from min(T) [0 0 0 0 0 0 0] 5.1289e-20 to max(T) [0 0 0 0 0 0 0] 0.952362

ExecutionTime = 5.56 s  ClockTime = 100 s

Time = 0.27
Courant Number mean: 0.371784 max: 0.728203
DILUPBiCG:  Solving for T, Initial residual = 0.0135636, Final residual = 9.01106e-10, No Iterations 3
DILUPBiCG:  Solving for T, Initial residual = 0.000141518, Final residual = 2.85415e-11, No Iterations 3
DILUPBiCG:  Solving for T, Initial residual = 1.57052e-06, Final residual = 6.93501e-09, No Iterations 1
DILUPBiCG:  Solving for T, Initial residual = 4.33656e-08, Final residual = 3.91961e-10, No Iterations 1
 T goes from min(T) [0 0 0 0 0 0 0] 5.92635e-20 to max(T) [0 0 0 0 0 0 0] 0.954102

ExecutionTime = 5.7 s  ClockTime = 102 s

Time = 0.28
Courant Number mean: 0.371688 max: 0.727757
DILUPBiCG:  Solving for T, Initial residual = 0.0135667, Final residual = 9.04534e-10, No Iterations 3
DILUPBiCG:  Solving for T, Initial residual = 0.000142705, Final residual = 2.8967e-11, No Iterations 3
DILUPBiCG:  Solving for T, Initial residual = 1.61687e-06, Final residual = 6.9776e-09, No Iterations 1
DILUPBiCG:  Solving for T, Initial residual = 4.50173e-08, Final residual = 4.01836e-10, No Iterations 1
 T goes from min(T) [0 0 0 0 0 0 0] 5.55295e-20 to max(T) [0 0 0 0 0 0 0] 0.953524

ExecutionTime = 5.83 s  ClockTime = 105 s

Time = 0.29
Courant Number mean: 0.371541 max: 0.727123
DILUPBiCG:  Solving for T, Initial residual = 0.0135729, Final residual = 9.08334e-10, No Iterations 3
DILUPBiCG:  Solving for T, Initial residual = 0.000144228, Final residual = 2.92448e-11, No Iterations 3
DILUPBiCG:  Solving for T, Initial residual = 1.66496e-06, Final residual = 7.04662e-09, No Iterations 1
DILUPBiCG:  Solving for T, Initial residual = 4.68722e-08, Final residual = 4.13153e-10, No Iterations 1
 T goes from min(T) [0 0 0 0 0 0 0] 5.41536e-20 to max(T) [0 0 0 0 0 0 0] 0.950865

ExecutionTime = 5.96 s  ClockTime = 108 s

Time = 0.3
Courant Number mean: 0.371308 max: 0.726625
DILUPBiCG:  Solving for T, Initial residual = 0.0135753, Final residual = 9.10002e-10, No Iterations 3
DILUPBiCG:  Solving for T, Initial residual = 0.000145855, Final residual = 2.95388e-11, No Iterations 3
DILUPBiCG:  Solving for T, Initial residual = 1.71103e-06, Final residual = 7.0951e-09, No Iterations 1
DILUPBiCG:  Solving for T, Initial residual = 4.91445e-08, Final residual = 4.25699e-10, No Iterations 1
 T goes from min(T) [0 0 0 0 0 0 0] 5.89998e-20 to max(T) [0 0 0 0 0 0 0] 0.952223

ExecutionTime = 6.1 s  ClockTime = 111 s

Time = 0.31
Courant Number mean: 0.370997 max: 0.725976
DILUPBiCG:  Solving for T, Initial residual = 0.0135801, Final residual = 9.17098e-10, No Iterations 3
DILUPBiCG:  Solving for T, Initial residual = 0.000147321, Final residual = 2.97571e-11, No Iterations 3
DILUPBiCG:  Solving for T, Initial residual = 1.75739e-06, Final residual = 7.19925e-09, No Iterations 1
DILUPBiCG:  Solving for T, Initial residual = 5.16728e-08, Final residual = 4.40886e-10, No Iterations 1
 T goes from min(T) [0 0 0 0 0 0 0] 6.41834e-20 to max(T) [0 0 0 0 0 0 0] 0.952599

ExecutionTime = 6.22 s  ClockTime = 113 s

Time = 0.32
Courant Number mean: 0.370833 max: 0.725417
DILUPBiCG:  Solving for T, Initial residual = 0.0135764, Final residual = 9.30313e-10, No Iterations 3
DILUPBiCG:  Solving for T, Initial residual = 0.000148703, Final residual = 2.99303e-11, No Iterations 3
DILUPBiCG:  Solving for T, Initial residual = 1.81264e-06, Final residual = 7.28627e-09, No Iterations 1
DILUPBiCG:  Solving for T, Initial residual = 5.36903e-08, Final residual = 4.53814e-10, No Iterations 1
 T goes from min(T) [0 0 0 0 0 0 0] 5.87241e-20 to max(T) [0 0 0 0 0 0 0] 0.952032

ExecutionTime = 6.38 s  ClockTime = 117 s

Time = 0.33
Courant Number mean: 0.37067 max: 0.724741
DILUPBiCG:  Solving for T, Initial residual = 0.0135781, Final residual = 9.44258e-10, No Iterations 3
DILUPBiCG:  Solving for T, Initial residual = 0.000150575, Final residual = 3.0171e-11, No Iterations 3
DILUPBiCG:  Solving for T, Initial residual = 1.86707e-06, Final residual = 7.39817e-09, No Iterations 1
DILUPBiCG:  Solving for T, Initial residual = 5.56974e-08, Final residual = 4.67368e-10, No Iterations 1
 T goes from min(T) [0 0 0 0 0 0 0] 6.00837e-20 to max(T) [0 0 0 0 0 0 0] 0.949344

ExecutionTime = 6.52 s  ClockTime = 120 s

Time = 0.34
Courant Number mean: 0.370423 max: 0.724128
DILUPBiCG:  Solving for T, Initial residual = 0.0135894, Final residual = 9.61499e-10, No Iterations 3
DILUPBiCG:  Solving for T, Initial residual = 0.000152253, Final residual = 3.04273e-11, No Iterations 3
DILUPBiCG:  Solving for T, Initial residual = 1.924e-06, Final residual = 7.53256e-09, No Iterations 1
DILUPBiCG:  Solving for T, Initial residual = 5.816e-08, Final residual = 4.8376e-10, No Iterations 1
 T goes from min(T) [0 0 0 0 0 0 0] 6.77843e-20 to max(T) [0 0 0 0 0 0 0] 0.951933

ExecutionTime = 6.68 s  ClockTime = 123 s

Time = 0.35
Courant Number mean: 0.370096 max: 0.723437
DILUPBiCG:  Solving for T, Initial residual = 0.0136049, Final residual = 9.82091e-10, No Iterations 3
DILUPBiCG:  Solving for T, Initial residual = 0.000154092, Final residual = 3.05952e-11, No Iterations 3
DILUPBiCG:  Solving for T, Initial residual = 1.98464e-06, Final residual = 7.67615e-09, No Iterations 1
DILUPBiCG:  Solving for T, Initial residual = 6.14098e-08, Final residual = 5.03057e-10, No Iterations 1
 T goes from min(T) [0 0 0 0 0 0 0] 6.54735e-20 to max(T) [0 0 0 0 0 0 0] 0.953008

ExecutionTime = 6.82 s  ClockTime = 126 s

Time = 0.36
Courant Number mean: 0.369869 max: 0.722766
DILUPBiCG:  Solving for T, Initial residual = 0.0136026, Final residual = 1.00995e-09, No Iterations 3
DILUPBiCG:  Solving for T, Initial residual = 0.000155798, Final residual = 3.09072e-11, No Iterations 3
DILUPBiCG:  Solving for T, Initial residual = 2.04816e-06, Final residual = 7.86349e-09, No Iterations 1
DILUPBiCG:  Solving for T, Initial residual = 6.40975e-08, Final residual = 5.22391e-10, No Iterations 1
 T goes from min(T) [0 0 0 0 0 0 0] -5.14096e-17 to max(T) [0 0 0 0 0 0 0] 0.952132

ExecutionTime = 6.96 s  ClockTime = 128 s

Time = 0.37
Courant Number mean: 0.369689 max: 0.722046
DILUPBiCG:  Solving for T, Initial residual = 0.0136128, Final residual = 1.04818e-09, No Iterations 3
DILUPBiCG:  Solving for T, Initial residual = 0.000157813, Final residual = 3.12277e-11, No Iterations 3
DILUPBiCG:  Solving for T, Initial residual = 2.11379e-06, Final residual = 8.04058e-09, No Iterations 1
DILUPBiCG:  Solving for T, Initial residual = 6.64615e-08, Final residual = 5.37976e-10, No Iterations 1
 T goes from min(T) [0 0 0 0 0 0 0] -2.68299e-16 to max(T) [0 0 0 0 0 0 0] 0.950084

ExecutionTime = 7.09 s  ClockTime = 131 s

Time = 0.38
Courant Number mean: 0.369429 max: 0.72132
DILUPBiCG:  Solving for T, Initial residual = 0.0136274, Final residual = 1.08697e-09, No Iterations 3
DILUPBiCG:  Solving for T, Initial residual = 0.000159955, Final residual = 9.8053e-09, No Iterations 2
DILUPBiCG:  Solving for T, Initial residual = 2.18283e-06, Final residual = 8.26052e-09, No Iterations 1
DILUPBiCG:  Solving for T, Initial residual = 6.92681e-08, Final residual = 5.56088e-10, No Iterations 1
 T goes from min(T) [0 0 0 0 0 0 0] -1.81634e-15 to max(T) [0 0 0 0 0 0 0] 0.952626

ExecutionTime = 7.22 s  ClockTime = 133 s

Time = 0.39
Courant Number mean: 0.369088 max: 0.720586
DILUPBiCG:  Solving for T, Initial residual = 0.0136506, Final residual = 1.12922e-09, No Iterations 3
DILUPBiCG:  Solving for T, Initial residual = 0.000162214, Final residual = 9.56287e-09, No Iterations 2
DILUPBiCG:  Solving for T, Initial residual = 2.25375e-06, Final residual = 8.49733e-09, No Iterations 1
DILUPBiCG:  Solving for T, Initial residual = 7.31175e-08, Final residual = 5.78276e-10, No Iterations 1
 T goes from min(T) [0 0 0 0 0 0 0] -6.85124e-15 to max(T) [0 0 0 0 0 0 0] 0.953235

ExecutionTime = 7.35 s  ClockTime = 136 s

Time = 0.4
Courant Number mean: 0.368794 max: 0.719804
DILUPBiCG:  Solving for T, Initial residual = 0.0136613, Final residual = 1.17952e-09, No Iterations 3
DILUPBiCG:  Solving for T, Initial residual = 0.000164332, Final residual = 9.31913e-09, No Iterations 2
DILUPBiCG:  Solving for T, Initial residual = 2.32481e-06, Final residual = 8.80277e-09, No Iterations 1
DILUPBiCG:  Solving for T, Initial residual = 7.67845e-08, Final residual = 6.02952e-10, No Iterations 1
 T goes from min(T) [0 0 0 0 0 0 0] -1.06491e-14 to max(T) [0 0 0 0 0 0 0] 0.952113

ExecutionTime = 7.47 s  ClockTime = 138 s

Time = 0.41
Courant Number mean: 0.368601 max: 0.719042
DILUPBiCG:  Solving for T, Initial residual = 0.0136851, Final residual = 1.23555e-09, No Iterations 3
DILUPBiCG:  Solving for T, Initial residual = 0.000166283, Final residual = 9.07561e-09, No Iterations 2
DILUPBiCG:  Solving for T, Initial residual = 2.40939e-06, Final residual = 9.11425e-09, No Iterations 1
DILUPBiCG:  Solving for T, Initial residual = 7.98792e-08, Final residual = 6.22012e-10, No Iterations 1
 T goes from min(T) [0 0 0 0 0 0 0] -1.74829e-13 to max(T) [0 0 0 0 0 0 0] 0.949459

ExecutionTime = 7.6 s  ClockTime = 140 s

Time = 0.42
Courant Number mean: 0.368324 max: 0.718202
DILUPBiCG:  Solving for T, Initial residual = 0.0137133, Final residual = 1.29169e-09, No Iterations 3
DILUPBiCG:  Solving for T, Initial residual = 0.000168653, Final residual = 8.85008e-09, No Iterations 2
DILUPBiCG:  Solving for T, Initial residual = 2.49769e-06, Final residual = 9.4789e-09, No Iterations 1
DILUPBiCG:  Solving for T, Initial residual = 8.35641e-08, Final residual = 6.46111e-10, No Iterations 1
 T goes from min(T) [0 0 0 0 0 0 0] -2.94664e-13 to max(T) [0 0 0 0 0 0 0] 0.950684

ExecutionTime = 7.75 s  ClockTime = 143 s

Time = 0.43
Courant Number mean: 0.367972 max: 0.717426
DILUPBiCG:  Solving for T, Initial residual = 0.0137256, Final residual = 1.35026e-09, No Iterations 3
DILUPBiCG:  Solving for T, Initial residual = 0.000171011, Final residual = 8.66867e-09, No Iterations 2
DILUPBiCG:  Solving for T, Initial residual = 2.58909e-06, Final residual = 9.89267e-09, No Iterations 1
DILUPBiCG:  Solving for T, Initial residual = 8.83598e-08, Final residual = 6.72298e-10, No Iterations 1
 T goes from min(T) [0 0 0 0 0 0 0] -4.16011e-11 to max(T) [0 0 0 0 0 0 0] 0.95205

ExecutionTime = 7.89 s  ClockTime = 147 s

Time = 0.44
Courant Number mean: 0.367614 max: 0.716534
DILUPBiCG:  Solving for T, Initial residual = 0.0137563, Final residual = 1.42266e-09, No Iterations 3
DILUPBiCG:  Solving for T, Initial residual = 0.000173617, Final residual = 8.50289e-09, No Iterations 2
DILUPBiCG:  Solving for T, Initial residual = 2.6827e-06, Final residual = 1.06839e-10, No Iterations 2
DILUPBiCG:  Solving for T, Initial residual = 8.77355e-08, Final residual = 4.73213e-10, No Iterations 1
 T goes from min(T) [0 0 0 0 0 0 0] -2.00026e-10 to max(T) [0 0 0 0 0 0 0] 0.951684

ExecutionTime = 8.03 s  ClockTime = 149 s

Time = 0.45
Courant Number mean: 0.367404 max: 0.715729
DILUPBiCG:  Solving for T, Initial residual = 0.0137993, Final residual = 1.50049e-09, No Iterations 3
DILUPBiCG:  Solving for T, Initial residual = 0.000176079, Final residual = 8.31048e-09, No Iterations 2
DILUPBiCG:  Solving for T, Initial residual = 2.77703e-06, Final residual = 1.10552e-10, No Iterations 2
DILUPBiCG:  Solving for T, Initial residual = 9.20403e-08, Final residual = 4.98567e-10, No Iterations 1
 T goes from min(T) [0 0 0 0 0 0 0] -7.43034e-10 to max(T) [0 0 0 0 0 0 0] 0.949789

ExecutionTime = 8.19 s  ClockTime = 153 s

Time = 0.46
Courant Number mean: 0.367114 max: 0.714778
DILUPBiCG:  Solving for T, Initial residual = 0.0138444, Final residual = 1.58723e-09, No Iterations 3
DILUPBiCG:  Solving for T, Initial residual = 0.000178643, Final residual = 8.14006e-09, No Iterations 2
DILUPBiCG:  Solving for T, Initial residual = 2.88274e-06, Final residual = 1.15278e-10, No Iterations 2
DILUPBiCG:  Solving for T, Initial residual = 9.66206e-08, Final residual = 5.23794e-10, No Iterations 1
 T goes from min(T) [0 0 0 0 0 0 0] -1.71924e-09 to max(T) [0 0 0 0 0 0 0] 0.946769

ExecutionTime = 8.32 s  ClockTime = 157 s

Time = 0.47
Courant Number mean: 0.366748 max: 0.713958
DILUPBiCG:  Solving for T, Initial residual = 0.0138831, Final residual = 1.69587e-09, No Iterations 3
DILUPBiCG:  Solving for T, Initial residual = 0.000181314, Final residual = 7.99686e-09, No Iterations 2
DILUPBiCG:  Solving for T, Initial residual = 2.98861e-06, Final residual = 1.20992e-10, No Iterations 2
DILUPBiCG:  Solving for T, Initial residual = 1.02792e-07, Final residual = 5.54015e-10, No Iterations 1
 T goes from min(T) [0 0 0 0 0 0 0] -3.38409e-09 to max(T) [0 0 0 0 0 0 0] 0.950595

ExecutionTime = 8.49 s  ClockTime = 160 s

Time = 0.48
Courant Number mean: 0.366328 max: 0.712957
DILUPBiCG:  Solving for T, Initial residual = 0.013905, Final residual = 1.83474e-09, No Iterations 3
DILUPBiCG:  Solving for T, Initial residual = 0.000183973, Final residual = 7.89088e-09, No Iterations 2
DILUPBiCG:  Solving for T, Initial residual = 3.10598e-06, Final residual = 1.28273e-10, No Iterations 2
DILUPBiCG:  Solving for T, Initial residual = 1.09847e-07, Final residual = 5.83132e-10, No Iterations 1
 T goes from min(T) [0 0 0 0 0 0 0] -6.05659e-09 to max(T) [0 0 0 0 0 0 0] 0.949747

ExecutionTime = 8.62 s  ClockTime = 163 s

Time = 0.49
Courant Number mean: 0.366104 max: 0.71211
DILUPBiCG:  Solving for T, Initial residual = 0.0139537, Final residual = 1.9917e-09, No Iterations 3
DILUPBiCG:  Solving for T, Initial residual = 0.000187106, Final residual = 7.72656e-09, No Iterations 2
DILUPBiCG:  Solving for T, Initial residual = 3.23134e-06, Final residual = 1.37714e-10, No Iterations 2
DILUPBiCG:  Solving for T, Initial residual = 1.15202e-07, Final residual = 6.10984e-10, No Iterations 1
 T goes from min(T) [0 0 0 0 0 0 0] -1.0936e-08 to max(T) [0 0 0 0 0 0 0] 0.950047

ExecutionTime = 8.75 s  ClockTime = 166 s

Time = 0.5
Courant Number mean: 0.365801 max: 0.711048
DILUPBiCG:  Solving for T, Initial residual = 0.0140025, Final residual = 2.16152e-09, No Iterations 3
DILUPBiCG:  Solving for T, Initial residual = 0.000190098, Final residual = 7.56297e-09, No Iterations 2
DILUPBiCG:  Solving for T, Initial residual = 3.36298e-06, Final residual = 1.50195e-10, No Iterations 2
DILUPBiCG:  Solving for T, Initial residual = 1.21671e-07, Final residual = 6.41963e-10, No Iterations 1
 T goes from min(T) [0 0 0 0 0 0 0] -1.52364e-08 to max(T) [0 0 0 0 0 0 0] 0.946603

ExecutionTime = 8.89 s  ClockTime = 169 s

Time = 0.51
Courant Number mean: 0.365421 max: 0.710186
DILUPBiCG:  Solving for T, Initial residual = 0.0140629, Final residual = 2.32517e-09, No Iterations 3
DILUPBiCG:  Solving for T, Initial residual = 0.000192961, Final residual = 7.42972e-09, No Iterations 2
DILUPBiCG:  Solving for T, Initial residual = 3.49019e-06, Final residual = 1.69551e-10, No Iterations 2
DILUPBiCG:  Solving for T, Initial residual = 1.29301e-07, Final residual = 6.72623e-10, No Iterations 1
 T goes from min(T) [0 0 0 0 0 0 0] -2.82084e-08 to max(T) [0 0 0 0 0 0 0] 0.946573

ExecutionTime = 9.03 s  ClockTime = 172 s

Time = 0.52
Courant Number mean: 0.364963 max: 0.709111
DILUPBiCG:  Solving for T, Initial residual = 0.0141163, Final residual = 2.49281e-09, No Iterations 3
DILUPBiCG:  Solving for T, Initial residual = 0.000196003, Final residual = 7.29503e-09, No Iterations 2
DILUPBiCG:  Solving for T, Initial residual = 3.62933e-06, Final residual = 1.98986e-10, No Iterations 2
DILUPBiCG:  Solving for T, Initial residual = 1.38612e-07, Final residual = 7.36847e-10, No Iterations 1
 T goes from min(T) [0 0 0 0 0 0 0] -4.09685e-08 to max(T) [0 0 0 0 0 0 0] 0.948512

ExecutionTime = 9.16 s  ClockTime = 174 s

Time = 0.53
Courant Number mean: 0.3647 max: 0.708188
DILUPBiCG:  Solving for T, Initial residual = 0.014152, Final residual = 2.64621e-09, No Iterations 3
DILUPBiCG:  Solving for T, Initial residual = 0.00019916, Final residual = 7.03491e-09, No Iterations 2
DILUPBiCG:  Solving for T, Initial residual = 3.77521e-06, Final residual = 2.49521e-10, No Iterations 2
DILUPBiCG:  Solving for T, Initial residual = 1.46657e-07, Final residual = 8.08252e-10, No Iterations 1
 T goes from min(T) [0 0 0 0 0 0 0] -5.84715e-08 to max(T) [0 0 0 0 0 0 0] 0.949313

ExecutionTime = 9.32 s  ClockTime = 178 s

Time = 0.54
Courant Number mean: 0.364386 max: 0.707085
DILUPBiCG:  Solving for T, Initial residual = 0.0142083, Final residual = 2.79152e-09, No Iterations 3
DILUPBiCG:  Solving for T, Initial residual = 0.000202264, Final residual = 6.74282e-09, No Iterations 2
DILUPBiCG:  Solving for T, Initial residual = 3.93037e-06, Final residual = 3.52889e-10, No Iterations 2
DILUPBiCG:  Solving for T, Initial residual = 1.55374e-07, Final residual = 8.96708e-10, No Iterations 1
 T goes from min(T) [0 0 0 0 0 0 0] -8.96263e-08 to max(T) [0 0 0 0 0 0 0] 0.948371

ExecutionTime = 9.46 s  ClockTime = 181 s

Time = 0.55
Courant Number mean: 0.363993 max: 0.706112
DILUPBiCG:  Solving for T, Initial residual = 0.0142602, Final residual = 2.91714e-09, No Iterations 3
DILUPBiCG:  Solving for T, Initial residual = 0.000205882, Final residual = 6.44174e-09, No Iterations 2
DILUPBiCG:  Solving for T, Initial residual = 4.09125e-06, Final residual = 6.12181e-10, No Iterations 2
DILUPBiCG:  Solving for T, Initial residual = 1.65321e-07, Final residual = 9.98062e-10, No Iterations 1
 T goes from min(T) [0 0 0 0 0 0 0] -1.19201e-07 to max(T) [0 0 0 0 0 0 0] 0.946341

ExecutionTime = 9.59 s  ClockTime = 184 s

Time = 0.56
Courant Number mean: 0.363521 max: 0.704995
DILUPBiCG:  Solving for T, Initial residual = 0.0143141, Final residual = 3.03898e-09, No Iterations 3
DILUPBiCG:  Solving for T, Initial residual = 0.000209234, Final residual = 6.27013e-09, No Iterations 2
DILUPBiCG:  Solving for T, Initial residual = 4.26105e-06, Final residual = 1.5421e-09, No Iterations 2
DILUPBiCG:  Solving for T, Initial residual = 1.77234e-07, Final residual = 1.12437e-09, No Iterations 1
 T goes from min(T) [0 0 0 0 0 0 0] -1.61584e-07 to max(T) [0 0 0 0 0 0 0] 0.943035

ExecutionTime = 9.75 s  ClockTime = 187 s

Time = 0.57
Courant Number mean: 0.363196 max: 0.703964
DILUPBiCG:  Solving for T, Initial residual = 0.0143848, Final residual = 3.19281e-09, No Iterations 3
DILUPBiCG:  Solving for T, Initial residual = 0.000213143, Final residual = 9.96412e-09, No Iterations 2
DILUPBiCG:  Solving for T, Initial residual = 4.44266e-06, Final residual = 6.13692e-09, No Iterations 2
DILUPBiCG:  Solving for T, Initial residual = 1.85224e-07, Final residual = 1.21188e-09, No Iterations 1
 T goes from min(T) [0 0 0 0 0 0 0] -2.46236e-07 to max(T) [0 0 0 0 0 0 0] 0.945441

ExecutionTime = 9.88 s  ClockTime = 190 s

Time = 0.58
Courant Number mean: 0.362871 max: 0.70282
DILUPBiCG:  Solving for T, Initial residual = 0.0144325, Final residual = 3.42455e-09, No Iterations 3
DILUPBiCG:  Solving for T, Initial residual = 0.000216807, Final residual = 3.01271e-10, No Iterations 3
DILUPBiCG:  Solving for T, Initial residual = 4.6201e-06, Final residual = 1.27168e-09, No Iterations 2
DILUPBiCG:  Solving for T, Initial residual = 1.97654e-07, Final residual = 1.37527e-09, No Iterations 1
 T goes from min(T) [0 0 0 0 0 0 0] -3.26768e-07 to max(T) [0 0 0 0 0 0 0] 0.947052

ExecutionTime = 10.02 s  ClockTime = 193 s

Time = 0.59
Courant Number mean: 0.362465 max: 0.701738
DILUPBiCG:  Solving for T, Initial residual = 0.0144955, Final residual = 3.70202e-09, No Iterations 3
DILUPBiCG:  Solving for T, Initial residual = 0.000220783, Final residual = 3.3166e-10, No Iterations 3
DILUPBiCG:  Solving for T, Initial residual = 4.8275e-06, Final residual = 8.11902e-10, No Iterations 2
DILUPBiCG:  Solving for T, Initial residual = 2.10584e-07, Final residual = 1.54063e-09, No Iterations 1
 T goes from min(T) [0 0 0 0 0 0 0] -4.16291e-07 to max(T) [0 0 0 0 0 0 0] 0.947121

ExecutionTime = 10.15 s  ClockTime = 195 s

Time = 0.6
Courant Number mean: 0.361981 max: 0.70058
DILUPBiCG:  Solving for T, Initial residual = 0.0145639, Final residual = 4.04836e-09, No Iterations 3
DILUPBiCG:  Solving for T, Initial residual = 0.000224556, Final residual = 3.38301e-10, No Iterations 3
DILUPBiCG:  Solving for T, Initial residual = 5.01319e-06, Final residual = 6.60604e-10, No Iterations 2
DILUPBiCG:  Solving for T, Initial residual = 2.24694e-07, Final residual = 1.7168e-09, No Iterations 1
 T goes from min(T) [0 0 0 0 0 0 0] -5.70224e-07 to max(T) [0 0 0 0 0 0 0] 0.945899

ExecutionTime = 10.29 s  ClockTime = 198 s

Time = 0.61
Courant Number mean: 0.361595 max: 0.699442
DILUPBiCG:  Solving for T, Initial residual = 0.0146267, Final residual = 4.49436e-09, No Iterations 3
DILUPBiCG:  Solving for T, Initial residual = 0.000228538, Final residual = 3.17563e-10, No Iterations 3
DILUPBiCG:  Solving for T, Initial residual = 5.2392e-06, Final residual = 6.05618e-10, No Iterations 2
DILUPBiCG:  Solving for T, Initial residual = 2.39672e-07, Final residual = 1.88527e-09, No Iterations 1
 T goes from min(T) [0 0 0 0 0 0 0] -7.75696e-07 to max(T) [0 0 0 0 0 0 0] 0.943352

ExecutionTime = 10.43 s  ClockTime = 201 s

Time = 0.62
Courant Number mean: 0.361259 max: 0.698258
DILUPBiCG:  Solving for T, Initial residual = 0.0146982, Final residual = 5.02915e-09, No Iterations 3
DILUPBiCG:  Solving for T, Initial residual = 0.000232513, Final residual = 2.91024e-10, No Iterations 3
DILUPBiCG:  Solving for T, Initial residual = 5.45307e-06, Final residual = 5.94841e-10, No Iterations 2
DILUPBiCG:  Solving for T, Initial residual = 2.52977e-07, Final residual = 2.04703e-09, No Iterations 1
 T goes from min(T) [0 0 0 0 0 0 0] -9.6288e-07 to max(T) [0 0 0 0 0 0 0] 0.940296

ExecutionTime = 10.56 s  ClockTime = 204 s

Time = 0.63
Courant Number mean: 0.360843 max: 0.697067
DILUPBiCG:  Solving for T, Initial residual = 0.0147572, Final residual = 5.6992e-09, No Iterations 3
DILUPBiCG:  Solving for T, Initial residual = 0.000237165, Final residual = 2.80725e-10, No Iterations 3
DILUPBiCG:  Solving for T, Initial residual = 5.69335e-06, Final residual = 6.12162e-10, No Iterations 2
DILUPBiCG:  Solving for T, Initial residual = 2.68857e-07, Final residual = 2.24778e-09, No Iterations 1
 T goes from min(T) [0 0 0 0 0 0 0] -1.29333e-06 to max(T) [0 0 0 0 0 0 0] 0.940212

ExecutionTime = 10.73 s  ClockTime = 207 s

Time = 0.64
Courant Number mean: 0.360345 max: 0.695869
DILUPBiCG:  Solving for T, Initial residual = 0.0148221, Final residual = 6.56929e-09, No Iterations 3
DILUPBiCG:  Solving for T, Initial residual = 0.000241468, Final residual = 2.94912e-10, No Iterations 3
DILUPBiCG:  Solving for T, Initial residual = 5.92736e-06, Final residual = 6.50388e-10, No Iterations 2
DILUPBiCG:  Solving for T, Initial residual = 2.85509e-07, Final residual = 2.51982e-09, No Iterations 1
 T goes from min(T) [0 0 0 0 0 0 0] -1.62356e-06 to max(T) [0 0 0 0 0 0 0] 0.94299

ExecutionTime = 10.88 s  ClockTime = 211 s

Time = 0.65
Courant Number mean: 0.359898 max: 0.694625
DILUPBiCG:  Solving for T, Initial residual = 0.0148919, Final residual = 7.79441e-09, No Iterations 3
DILUPBiCG:  Solving for T, Initial residual = 0.000246527, Final residual = 3.73688e-10, No Iterations 3
DILUPBiCG:  Solving for T, Initial residual = 6.19194e-06, Final residual = 7.09306e-10, No Iterations 2
DILUPBiCG:  Solving for T, Initial residual = 3.02569e-07, Final residual = 2.83075e-09, No Iterations 1
 T goes from min(T) [0 0 0 0 0 0 0] -2.12586e-06 to max(T) [0 0 0 0 0 0 0] 0.943356

ExecutionTime = 11.01 s  ClockTime = 213 s

Time = 0.66
Courant Number mean: 0.359551 max: 0.6934
DILUPBiCG:  Solving for T, Initial residual = 0.0149547, Final residual = 9.35009e-09, No Iterations 3
DILUPBiCG:  Solving for T, Initial residual = 0.000251185, Final residual = 1.33722e-09, No Iterations 3
DILUPBiCG:  Solving for T, Initial residual = 6.44048e-06, Final residual = 7.73294e-10, No Iterations 2
DILUPBiCG:  Solving for T, Initial residual = 3.20807e-07, Final residual = 3.1961e-09, No Iterations 1
 T goes from min(T) [0 0 0 0 0 0 0] -2.52312e-06 to max(T) [0 0 0 0 0 0 0] 0.943237

ExecutionTime = 11.14 s  ClockTime = 216 s

Time = 0.67
Courant Number mean: 0.359125 max: 0.692102
DILUPBiCG:  Solving for T, Initial residual = 0.0150391, Final residual = 2.71942e-10, No Iterations 4
DILUPBiCG:  Solving for T, Initial residual = 0.000256288, Final residual = 5.15573e-10, No Iterations 3
DILUPBiCG:  Solving for T, Initial residual = 6.70325e-06, Final residual = 8.62458e-10, No Iterations 2
DILUPBiCG:  Solving for T, Initial residual = 3.3831e-07, Final residual = 3.63206e-09, No Iterations 1
 T goes from min(T) [0 0 0 0 0 0 0] -3.38603e-06 to max(T) [0 0 0 0 0 0 0] 0.940445

ExecutionTime = 11.27 s  ClockTime = 219 s

Time = 0.68
Courant Number mean: 0.35862 max: 0.690864
DILUPBiCG:  Solving for T, Initial residual = 0.0151249, Final residual = 4.47313e-10, No Iterations 4
DILUPBiCG:  Solving for T, Initial residual = 0.000261072, Final residual = 9.79137e-10, No Iterations 3
DILUPBiCG:  Solving for T, Initial residual = 6.993e-06, Final residual = 1.05102e-09, No Iterations 2
DILUPBiCG:  Solving for T, Initial residual = 3.60786e-07, Final residual = 4.05205e-09, No Iterations 1
 T goes from min(T) [0 0 0 0 0 0 0] -4.23204e-06 to max(T) [0 0 0 0 0 0 0] 0.938599

ExecutionTime = 11.4 s  ClockTime = 222 s

Time = 0.69
Courant Number mean: 0.358117 max: 0.689516
DILUPBiCG:  Solving for T, Initial residual = 0.0152003, Final residual = 1.2911e-09, No Iterations 4
DILUPBiCG:  Solving for T, Initial residual = 0.0002663, Final residual = 6.50798e-12, No Iterations 4
DILUPBiCG:  Solving for T, Initial residual = 7.2475e-06, Final residual = 1.44663e-09, No Iterations 2
DILUPBiCG:  Solving for T, Initial residual = 3.80947e-07, Final residual = 4.45542e-09, No Iterations 1
 T goes from min(T) [0 0 0 0 0 0 0] -5.24126e-06 to max(T) [0 0 0 0 0 0 0] 0.933847

ExecutionTime = 11.54 s  ClockTime = 224 s

Time = 0.7
Courant Number mean: 0.357753 max: 0.688251
DILUPBiCG:  Solving for T, Initial residual = 0.0152858, Final residual = 1.2318e-09, No Iterations 4
DILUPBiCG:  Solving for T, Initial residual = 0.000271142, Final residual = 1.33599e-09, No Iterations 3
DILUPBiCG:  Solving for T, Initial residual = 7.5774e-06, Final residual = 1.9922e-09, No Iterations 2
DILUPBiCG:  Solving for T, Initial residual = 4.02099e-07, Final residual = 4.82828e-09, No Iterations 1
 T goes from min(T) [0 0 0 0 0 0 0] -6.28533e-06 to max(T) [0 0 0 0 0 0 0] 0.93176

ExecutionTime = 11.66 s  ClockTime = 227 s

Time = 0.71
Courant Number mean: 0.357313 max: 0.686848
DILUPBiCG:  Solving for T, Initial residual = 0.015354, Final residual = 4.88075e-10, No Iterations 4
DILUPBiCG:  Solving for T, Initial residual = 0.000276778, Final residual = 8.09131e-10, No Iterations 3
DILUPBiCG:  Solving for T, Initial residual = 7.86732e-06, Final residual = 2.29875e-09, No Iterations 2
DILUPBiCG:  Solving for T, Initial residual = 4.23334e-07, Final residual = 5.06762e-09, No Iterations 1
 T goes from min(T) [0 0 0 0 0 0 0] -7.70689e-06 to max(T) [0 0 0 0 0 0 0] 0.935726

ExecutionTime = 11.8 s  ClockTime = 230 s

Time = 0.72
Courant Number mean: 0.356808 max: 0.685568
DILUPBiCG:  Solving for T, Initial residual = 0.0154253, Final residual = 3.97973e-10, No Iterations 4
DILUPBiCG:  Solving for T, Initial residual = 0.000282059, Final residual = 6.58268e-10, No Iterations 3
DILUPBiCG:  Solving for T, Initial residual = 8.20094e-06, Final residual = 2.34357e-09, No Iterations 2
DILUPBiCG:  Solving for T, Initial residual = 4.46043e-07, Final residual = 5.59107e-09, No Iterations 1
 T goes from min(T) [0 0 0 0 0 0 0] -1.00051e-05 to max(T) [0 0 0 0 0 0 0] 0.937774

ExecutionTime = 11.93 s  ClockTime = 233 s

Time = 0.73
Courant Number mean: 0.356249 max: 0.684118
DILUPBiCG:  Solving for T, Initial residual = 0.015492, Final residual = 3.88768e-10, No Iterations 4
DILUPBiCG:  Solving for T, Initial residual = 0.000287612, Final residual = 6.19051e-10, No Iterations 3
DILUPBiCG:  Solving for T, Initial residual = 8.53686e-06, Final residual = 2.2673e-09, No Iterations 2
DILUPBiCG:  Solving for T, Initial residual = 4.74504e-07, Final residual = 6.25934e-09, No Iterations 1
 T goes from min(T) [0 0 0 0 0 0 0] -1.16751e-05 to max(T) [0 0 0 0 0 0 0] 0.938093

ExecutionTime = 12.06 s  ClockTime = 235 s

Time = 0.74
Courant Number mean: 0.355874 max: 0.682813
DILUPBiCG:  Solving for T, Initial residual = 0.0155846, Final residual = 4.07842e-10, No Iterations 4
DILUPBiCG:  Solving for T, Initial residual = 0.000293586, Final residual = 6.22914e-10, No Iterations 3
DILUPBiCG:  Solving for T, Initial residual = 8.86661e-06, Final residual = 2.27878e-09, No Iterations 2
DILUPBiCG:  Solving for T, Initial residual = 4.9515e-07, Final residual = 7.57017e-09, No Iterations 1
 T goes from min(T) [0 0 0 0 0 0 0] -1.37513e-05 to max(T) [0 0 0 0 0 0 0] 0.936813

ExecutionTime = 12.2 s  ClockTime = 238 s

Time = 0.75
Courant Number mean: 0.355424 max: 0.681306
DILUPBiCG:  Solving for T, Initial residual = 0.0156708, Final residual = 4.4449e-10, No Iterations 4
DILUPBiCG:  Solving for T, Initial residual = 0.000299086, Final residual = 6.5545e-10, No Iterations 3
DILUPBiCG:  Solving for T, Initial residual = 9.20526e-06, Final residual = 2.64e-09, No Iterations 2
DILUPBiCG:  Solving for T, Initial residual = 5.22862e-07, Final residual = 3.04275e-10, No Iterations 2
 T goes from min(T) [0 0 0 0 0 0 0] -1.74236e-05 to max(T) [0 0 0 0 0 0 0] 0.934844

ExecutionTime = 12.33 s  ClockTime = 241 s

Time = 0.76
Courant Number mean: 0.354909 max: 0.679987
DILUPBiCG:  Solving for T, Initial residual = 0.0157772, Final residual = 4.95972e-10, No Iterations 4
DILUPBiCG:  Solving for T, Initial residual = 0.000305255, Final residual = 7.18893e-10, No Iterations 3
DILUPBiCG:  Solving for T, Initial residual = 9.5586e-06, Final residual = 3.32735e-09, No Iterations 2
DILUPBiCG:  Solving for T, Initial residual = 5.49604e-07, Final residual = 7.63788e-10, No Iterations 2
 T goes from min(T) [0 0 0 0 0 0 0] -2.13493e-05 to max(T) [0 0 0 0 0 0 0] 0.930962

ExecutionTime = 12.46 s  ClockTime = 244 s

Time = 0.77
Courant Number mean: 0.354322 max: 0.678467
DILUPBiCG:  Solving for T, Initial residual = 0.0158702, Final residual = 5.61671e-10, No Iterations 4
DILUPBiCG:  Solving for T, Initial residual = 0.000310868, Final residual = 8.19442e-10, No Iterations 3
DILUPBiCG:  Solving for T, Initial residual = 9.91037e-06, Final residual = 4.89419e-09, No Iterations 2
DILUPBiCG:  Solving for T, Initial residual = 5.76398e-07, Final residual = 1.37088e-09, No Iterations 2
 T goes from min(T) [0 0 0 0 0 0 0] -2.47835e-05 to max(T) [0 0 0 0 0 0 0] 0.927456

ExecutionTime = 12.59 s  ClockTime = 246 s

Time = 0.78
Courant Number mean: 0.353916 max: 0.67709
DILUPBiCG:  Solving for T, Initial residual = 0.0159601, Final residual = 6.38794e-10, No Iterations 4
DILUPBiCG:  Solving for T, Initial residual = 0.000317443, Final residual = 9.4124e-10, No Iterations 3
DILUPBiCG:  Solving for T, Initial residual = 1.02986e-05, Final residual = 9.80812e-09, No Iterations 2
DILUPBiCG:  Solving for T, Initial residual = 6.06846e-07, Final residual = 5.17096e-10, No Iterations 2
 T goes from min(T) [0 0 0 0 0 0 0] -2.8657e-05 to max(T) [0 0 0 0 0 0 0] 0.922928

ExecutionTime = 12.73 s  ClockTime = 249 s

Time = 0.79
Courant Number mean: 0.353469 max: 0.675546
DILUPBiCG:  Solving for T, Initial residual = 0.0160656, Final residual = 7.23365e-10, No Iterations 4
DILUPBiCG:  Solving for T, Initial residual = 0.000323201, Final residual = 1.05972e-09, No Iterations 3
DILUPBiCG:  Solving for T, Initial residual = 1.06672e-05, Final residual = 5.82264e-11, No Iterations 3
DILUPBiCG:  Solving for T, Initial residual = 6.34209e-07, Final residual = 3.9678e-10, No Iterations 2
 T goes from min(T) [0 0 0 0 0 0 0] -3.59573e-05 to max(T) [0 0 0 0 0 0 0] 0.918625

ExecutionTime = 12.86 s  ClockTime = 252 s

Time = 0.8
Courant Number mean: 0.352941 max: 0.674122
DILUPBiCG:  Solving for T, Initial residual = 0.0161604, Final residual = 8.08538e-10, No Iterations 4
DILUPBiCG:  Solving for T, Initial residual = 0.000329004, Final residual = 1.15261e-09, No Iterations 3
DILUPBiCG:  Solving for T, Initial residual = 1.10518e-05, Final residual = 5.97481e-11, No Iterations 3
DILUPBiCG:  Solving for T, Initial residual = 6.6563e-07, Final residual = 3.44248e-10, No Iterations 2
 T goes from min(T) [0 0 0 0 0 0 0] -4.18102e-05 to max(T) [0 0 0 0 0 0 0] 0.923859

ExecutionTime = 12.99 s  ClockTime = 254 s

Time = 0.81
Courant Number mean: 0.352338 max: 0.672564
DILUPBiCG:  Solving for T, Initial residual = 0.016242, Final residual = 8.8562e-10, No Iterations 4
DILUPBiCG:  Solving for T, Initial residual = 0.000335882, Final residual = 1.20022e-09, No Iterations 3
DILUPBiCG:  Solving for T, Initial residual = 1.14767e-05, Final residual = 8.8078e-09, No Iterations 2
DILUPBiCG:  Solving for T, Initial residual = 7.00776e-07, Final residual = 3.26345e-10, No Iterations 2
 T goes from min(T) [0 0 0 0 0 0 0] -5.06582e-05 to max(T) [0 0 0 0 0 0 0] 0.927326

ExecutionTime = 13.12 s  ClockTime = 257 s

Time = 0.82
Courant Number mean: 0.351882 max: 0.671086
DILUPBiCG:  Solving for T, Initial residual = 0.0163431, Final residual = 9.44904e-10, No Iterations 4
DILUPBiCG:  Solving for T, Initial residual = 0.000341756, Final residual = 1.17949e-09, No Iterations 3
DILUPBiCG:  Solving for T, Initial residual = 1.18728e-05, Final residual = 6.97925e-09, No Iterations 2
DILUPBiCG:  Solving for T, Initial residual = 7.3047e-07, Final residual = 3.39683e-10, No Iterations 2
 T goes from min(T) [0 0 0 0 0 0 0] -5.5752e-05 to max(T) [0 0 0 0 0 0 0] 0.928939

ExecutionTime = 13.25 s  ClockTime = 259 s

Time = 0.83
Courant Number mean: 0.351423 max: 0.669504
DILUPBiCG:  Solving for T, Initial residual = 0.0164205, Final residual = 9.79602e-10, No Iterations 4
DILUPBiCG:  Solving for T, Initial residual = 0.000348542, Final residual = 1.16785e-09, No Iterations 3
DILUPBiCG:  Solving for T, Initial residual = 1.22911e-05, Final residual = 6.0937e-09, No Iterations 2
DILUPBiCG:  Solving for T, Initial residual = 7.6185e-07, Final residual = 4.14811e-10, No Iterations 2
 T goes from min(T) [0 0 0 0 0 0 0] -6.54218e-05 to max(T) [0 0 0 0 0 0 0] 0.929165

ExecutionTime = 13.38 s  ClockTime = 262 s

Time = 0.84
Courant Number mean: 0.350889 max: 0.667978
DILUPBiCG:  Solving for T, Initial residual = 0.0165235, Final residual = 9.85099e-10, No Iterations 4
DILUPBiCG:  Solving for T, Initial residual = 0.00035504, Final residual = 1.15373e-09, No Iterations 3
DILUPBiCG:  Solving for T, Initial residual = 1.27035e-05, Final residual = 5.86791e-09, No Iterations 2
DILUPBiCG:  Solving for T, Initial residual = 7.95536e-07, Final residual = 5.34923e-10, No Iterations 2
 T goes from min(T) [0 0 0 0 0 0 0] -8.26133e-05 to max(T) [0 0 0 0 0 0 0] 0.927261

ExecutionTime = 13.5 s  ClockTime = 264 s

Time = 0.85
Courant Number mean: 0.350284 max: 0.666383
DILUPBiCG:  Solving for T, Initial residual = 0.0166408, Final residual = 9.68663e-10, No Iterations 4
DILUPBiCG:  Solving for T, Initial residual = 0.000361356, Final residual = 1.18913e-09, No Iterations 3
DILUPBiCG:  Solving for T, Initial residual = 1.31413e-05, Final residual = 6.26728e-09, No Iterations 2
DILUPBiCG:  Solving for T, Initial residual = 8.30146e-07, Final residual = 6.58602e-10, No Iterations 2
 T goes from min(T) [0 0 0 0 0 0 0] -9.37509e-05 to max(T) [0 0 0 0 0 0 0] 0.924287

ExecutionTime = 13.63 s  ClockTime = 266 s

Time = 0.86
Courant Number mean: 0.349772 max: 0.664806
DILUPBiCG:  Solving for T, Initial residual = 0.0167438, Final residual = 9.24567e-10, No Iterations 4
DILUPBiCG:  Solving for T, Initial residual = 0.000368037, Final residual = 1.25428e-09, No Iterations 3
DILUPBiCG:  Solving for T, Initial residual = 1.35889e-05, Final residual = 6.92452e-09, No Iterations 2
DILUPBiCG:  Solving for T, Initial residual = 8.63032e-07, Final residual = 7.33429e-10, No Iterations 2
 T goes from min(T) [0 0 0 0 0 0 0] -0.000109001 to max(T) [0 0 0 0 0 0 0] 0.920197

ExecutionTime = 13.76 s  ClockTime = 269 s

Time = 0.87
Courant Number mean: 0.3493 max: 0.663186
DILUPBiCG:  Solving for T, Initial residual = 0.0168611, Final residual = 8.33339e-10, No Iterations 4
DILUPBiCG:  Solving for T, Initial residual = 0.000375371, Final residual = 1.37954e-09, No Iterations 3
DILUPBiCG:  Solving for T, Initial residual = 1.40317e-05, Final residual = 7.59338e-09, No Iterations 2
DILUPBiCG:  Solving for T, Initial residual = 9.00193e-07, Final residual = 7.50454e-10, No Iterations 2
 T goes from min(T) [0 0 0 0 0 0 0] -0.000124311 to max(T) [0 0 0 0 0 0 0] 0.915416

ExecutionTime = 13.9 s  ClockTime = 272 s

Time = 0.88
Courant Number mean: 0.34876 max: 0.661559
DILUPBiCG:  Solving for T, Initial residual = 0.0169617, Final residual = 7.55017e-10, No Iterations 4
DILUPBiCG:  Solving for T, Initial residual = 0.000381787, Final residual = 1.52472e-09, No Iterations 3
DILUPBiCG:  Solving for T, Initial residual = 1.44794e-05, Final residual = 7.88994e-09, No Iterations 2
DILUPBiCG:  Solving for T, Initial residual = 9.34171e-07, Final residual = 7.29802e-10, No Iterations 2
 T goes from min(T) [0 0 0 0 0 0 0] -0.000145913 to max(T) [0 0 0 0 0 0 0] 0.909978

ExecutionTime = 14.03 s  ClockTime = 274 s

Time = 0.89
Courant Number mean: 0.348155 max: 0.659927
DILUPBiCG:  Solving for T, Initial residual = 0.017086, Final residual = 7.48536e-10, No Iterations 4
DILUPBiCG:  Solving for T, Initial residual = 0.000388308, Final residual = 1.63134e-09, No Iterations 3
DILUPBiCG:  Solving for T, Initial residual = 1.49183e-05, Final residual = 7.8503e-09, No Iterations 2
DILUPBiCG:  Solving for T, Initial residual = 9.69701e-07, Final residual = 6.73204e-10, No Iterations 2
 T goes from min(T) [0 0 0 0 0 0 0] -0.000173765 to max(T) [0 0 0 0 0 0 0] 0.906922

ExecutionTime = 14.19 s  ClockTime = 277 s

Time = 0.9
Courant Number mean: 0.34759 max: 0.658252
DILUPBiCG:  Solving for T, Initial residual = 0.0171946, Final residual = 8.17502e-10, No Iterations 4
DILUPBiCG:  Solving for T, Initial residual = 0.000396266, Final residual = 1.68728e-09, No Iterations 3
DILUPBiCG:  Solving for T, Initial residual = 1.53773e-05, Final residual = 7.38042e-09, No Iterations 2
DILUPBiCG:  Solving for T, Initial residual = 1.01075e-06, Final residual = 6.13657e-10, No Iterations 2
 T goes from min(T) [0 0 0 0 0 0 0] -0.000197224 to max(T) [0 0 0 0 0 0 0] 0.905467

ExecutionTime = 14.32 s  ClockTime = 279 s

Time = 0.91
Courant Number mean: 0.347109 max: 0.656595
DILUPBiCG:  Solving for T, Initial residual = 0.0173037, Final residual = 9.33752e-10, No Iterations 4
DILUPBiCG:  Solving for T, Initial residual = 0.000401973, Final residual = 1.68388e-09, No Iterations 3
DILUPBiCG:  Solving for T, Initial residual = 1.58693e-05, Final residual = 6.91555e-09, No Iterations 2
DILUPBiCG:  Solving for T, Initial residual = 1.04286e-06, Final residual = 5.52874e-10, No Iterations 2
 T goes from min(T) [0 0 0 0 0 0 0] -0.000218132 to max(T) [0 0 0 0 0 0 0] 0.903663

ExecutionTime = 14.46 s  ClockTime = 282 s

Time = 0.92
Courant Number mean: 0.346565 max: 0.65487
DILUPBiCG:  Solving for T, Initial residual = 0.0174311, Final residual = 1.0929e-09, No Iterations 4
DILUPBiCG:  Solving for T, Initial residual = 0.000409024, Final residual = 1.65096e-09, No Iterations 3
DILUPBiCG:  Solving for T, Initial residual = 1.63432e-05, Final residual = 6.36518e-09, No Iterations 2
DILUPBiCG:  Solving for T, Initial residual = 1.0799e-06, Final residual = 5.06548e-10, No Iterations 2
 T goes from min(T) [0 0 0 0 0 0 0] -0.000255023 to max(T) [0 0 0 0 0 0 0] 0.903015

ExecutionTime = 14.59 s  ClockTime = 285 s

Time = 0.93
Courant Number mean: 0.34595 max: 0.6532
DILUPBiCG:  Solving for T, Initial residual = 0.0175247, Final residual = 1.31831e-09, No Iterations 4
DILUPBiCG:  Solving for T, Initial residual = 0.000416279, Final residual = 1.5791e-09, No Iterations 3
DILUPBiCG:  Solving for T, Initial residual = 1.67881e-05, Final residual = 6.00952e-09, No Iterations 2
DILUPBiCG:  Solving for T, Initial residual = 1.12241e-06, Final residual = 4.65132e-10, No Iterations 2
 T goes from min(T) [0 0 0 0 0 0 0] -0.000297924 to max(T) [0 0 0 0 0 0 0] 0.907711

ExecutionTime = 14.72 s  ClockTime = 287 s

Time = 0.94
Courant Number mean: 0.345337 max: 0.65143
DILUPBiCG:  Solving for T, Initial residual = 0.0176375, Final residual = 1.77466e-09, No Iterations 4
DILUPBiCG:  Solving for T, Initial residual = 0.000422215, Final residual = 1.54639e-09, No Iterations 3
DILUPBiCG:  Solving for T, Initial residual = 1.73466e-05, Final residual = 5.92824e-09, No Iterations 2
DILUPBiCG:  Solving for T, Initial residual = 1.15457e-06, Final residual = 4.31681e-10, No Iterations 2
 T goes from min(T) [0 0 0 0 0 0 0] -0.000341 to max(T) [0 0 0 0 0 0 0] 0.911032

ExecutionTime = 14.84 s  ClockTime = 289 s

Time = 0.95
Courant Number mean: 0.344856 max: 0.649735
DILUPBiCG:  Solving for T, Initial residual = 0.0177433, Final residual = 3.2144e-09, No Iterations 4
DILUPBiCG:  Solving for T, Initial residual = 0.000429997, Final residual = 1.71167e-09, No Iterations 3
DILUPBiCG:  Solving for T, Initial residual = 1.77845e-05, Final residual = 5.87051e-09, No Iterations 2
DILUPBiCG:  Solving for T, Initial residual = 1.19464e-06, Final residual = 4.11795e-10, No Iterations 2
 T goes from min(T) [0 0 0 0 0 0 0] -0.000385769 to max(T) [0 0 0 0 0 0 0] 0.913181

ExecutionTime = 14.97 s  ClockTime = 292 s

Time = 0.96
Courant Number mean: 0.344308 max: 0.647915
DILUPBiCG:  Solving for T, Initial residual = 0.0178356, Final residual = 1.62088e-11, No Iterations 5
DILUPBiCG:  Solving for T, Initial residual = 0.000437056, Final residual = 2.04076e-09, No Iterations 3
DILUPBiCG:  Solving for T, Initial residual = 1.82348e-05, Final residual = 5.96479e-09, No Iterations 2
DILUPBiCG:  Solving for T, Initial residual = 1.23793e-06, Final residual = 3.72015e-10, No Iterations 2
 T goes from min(T) [0 0 0 0 0 0 0] -0.000415764 to max(T) [0 0 0 0 0 0 0] 0.914528

ExecutionTime = 15.1 s  ClockTime = 294 s

Time = 0.97
Courant Number mean: 0.343689 max: 0.646207
DILUPBiCG:  Solving for T, Initial residual = 0.0179584, Final residual = 1.82155e-09, No Iterations 4
DILUPBiCG:  Solving for T, Initial residual = 0.000443356, Final residual = 2.14084e-09, No Iterations 3
DILUPBiCG:  Solving for T, Initial residual = 1.88053e-05, Final residual = 5.97629e-09, No Iterations 2
DILUPBiCG:  Solving for T, Initial residual = 1.26877e-06, Final residual = 3.44451e-10, No Iterations 2
 T goes from min(T) [0 0 0 0 0 0 0] -0.000488344 to max(T) [0 0 0 0 0 0 0] 0.914865

ExecutionTime = 15.24 s  ClockTime = 297 s

Time = 0.98
Courant Number mean: 0.343028 max: 0.644344
DILUPBiCG:  Solving for T, Initial residual = 0.0180797, Final residual = 8.25874e-10, No Iterations 4
DILUPBiCG:  Solving for T, Initial residual = 0.000451596, Final residual = 1.75545e-09, No Iterations 3
DILUPBiCG:  Solving for T, Initial residual = 1.92269e-05, Final residual = 5.75861e-09, No Iterations 2
DILUPBiCG:  Solving for T, Initial residual = 1.31085e-06, Final residual = 3.17293e-10, No Iterations 2
 T goes from min(T) [0 0 0 0 0 0 0] -0.00056622 to max(T) [0 0 0 0 0 0 0] 0.914388

ExecutionTime = 15.37 s  ClockTime = 299 s

Time = 0.99
Courant Number mean: 0.342544 max: 0.642612
DILUPBiCG:  Solving for T, Initial residual = 0.0181799, Final residual = 7.14868e-10, No Iterations 4
DILUPBiCG:  Solving for T, Initial residual = 0.000459127, Final residual = 1.2873e-09, No Iterations 3
DILUPBiCG:  Solving for T, Initial residual = 1.97477e-05, Final residual = 5.79273e-09, No Iterations 2
DILUPBiCG:  Solving for T, Initial residual = 1.35489e-06, Final residual = 3.10519e-10, No Iterations 2
 T goes from min(T) [0 0 0 0 0 0 0] -0.000630216 to max(T) [0 0 0 0 0 0 0] 0.91422

ExecutionTime = 15.5 s  ClockTime = 302 s

Time = 1
Courant Number mean: 0.341991 max: 0.640698
DILUPBiCG:  Solving for T, Initial residual = 0.0183073, Final residual = 7.08295e-10, No Iterations 4
DILUPBiCG:  Solving for T, Initial residual = 0.000465085, Final residual = 9.23435e-10, No Iterations 3
DILUPBiCG:  Solving for T, Initial residual = 2.03094e-05, Final residual = 5.63059e-09, No Iterations 2
DILUPBiCG:  Solving for T, Initial residual = 1.38663e-06, Final residual = 2.95439e-10, No Iterations 2
 T goes from min(T) [0 0 0 0 0 0 0] -0.000709025 to max(T) [0 0 0 0 0 0 0] 0.913455

ExecutionTime = 15.63 s  ClockTime = 304 s

Time = 1.01
Courant Number mean: 0.341379 max: 0.638953
DILUPBiCG:  Solving for T, Initial residual = 0.018436, Final residual = 7.78808e-10, No Iterations 4
DILUPBiCG:  Solving for T, Initial residual = 0.000473701, Final residual = 7.93377e-10, No Iterations 3
DILUPBiCG:  Solving for T, Initial residual = 2.07242e-05, Final residual = 5.54475e-09, No Iterations 2
DILUPBiCG:  Solving for T, Initial residual = 1.43013e-06, Final residual = 2.86348e-10, No Iterations 2
 T goes from min(T) [0 0 0 0 0 0 0] -0.000762361 to max(T) [0 0 0 0 0 0 0] 0.912604

ExecutionTime = 15.76 s  ClockTime = 307 s

Time = 1.02
Courant Number mean: 0.340702 max: 0.637027
DILUPBiCG:  Solving for T, Initial residual = 0.0185523, Final residual = 9.37996e-10, No Iterations 4
DILUPBiCG:  Solving for T, Initial residual = 0.000480298, Final residual = 7.48832e-10, No Iterations 3
DILUPBiCG:  Solving for T, Initial residual = 2.12722e-05, Final residual = 5.55766e-09, No Iterations 2
DILUPBiCG:  Solving for T, Initial residual = 1.46979e-06, Final residual = 2.80876e-10, No Iterations 2
 T goes from min(T) [0 0 0 0 0 0 0] -0.000879095 to max(T) [0 0 0 0 0 0 0] 0.91252

ExecutionTime = 15.89 s  ClockTime = 309 s

Time = 1.03
Courant Number mean: 0.340192 max: 0.63523
DILUPBiCG:  Solving for T, Initial residual = 0.0186638, Final residual = 1.33249e-09, No Iterations 4
DILUPBiCG:  Solving for T, Initial residual = 0.000487106, Final residual = 7.15848e-10, No Iterations 3
DILUPBiCG:  Solving for T, Initial residual = 2.17782e-05, Final residual = 5.53852e-09, No Iterations 2
DILUPBiCG:  Solving for T, Initial residual = 1.50522e-06, Final residual = 2.67508e-10, No Iterations 2
 T goes from min(T) [0 0 0 0 0 0 0] -0.00100945 to max(T) [0 0 0 0 0 0 0] 0.91214

ExecutionTime = 16.02 s  ClockTime = 312 s

Time = 1.04
Courant Number mean: 0.33964 max: 0.633282
DILUPBiCG:  Solving for T, Initial residual = 0.0187964, Final residual = 6.9917e-09, No Iterations 4
DILUPBiCG:  Solving for T, Initial residual = 0.000494489, Final residual = 6.77728e-10, No Iterations 3
DILUPBiCG:  Solving for T, Initial residual = 2.2269e-05, Final residual = 5.67962e-09, No Iterations 2
DILUPBiCG:  Solving for T, Initial residual = 1.54836e-06, Final residual = 2.59528e-10, No Iterations 2
 T goes from min(T) [0 0 0 0 0 0 0] -0.00110182 to max(T) [0 0 0 0 0 0 0] 0.911524

ExecutionTime = 16.15 s  ClockTime = 314 s

Time = 1.05
Courant Number mean: 0.339024 max: 0.631442
DILUPBiCG:  Solving for T, Initial residual = 0.0189031, Final residual = 1.25734e-09, No Iterations 4
DILUPBiCG:  Solving for T, Initial residual = 0.000501627, Final residual = 6.26088e-10, No Iterations 3
DILUPBiCG:  Solving for T, Initial residual = 2.28222e-05, Final residual = 5.68898e-09, No Iterations 2
DILUPBiCG:  Solving for T, Initial residual = 1.58538e-06, Final residual = 2.56189e-10, No Iterations 2
 T goes from min(T) [0 0 0 0 0 0 0] -0.00123062 to max(T) [0 0 0 0 0 0 0] 0.910728

ExecutionTime = 16.28 s  ClockTime = 317 s

Time = 1.06
Courant Number mean: 0.338344 max: 0.629482
DILUPBiCG:  Solving for T, Initial residual = 0.0190127, Final residual = 8.01447e-10, No Iterations 4
DILUPBiCG:  Solving for T, Initial residual = 0.000509422, Final residual = 5.75086e-10, No Iterations 3
DILUPBiCG:  Solving for T, Initial residual = 2.32865e-05, Final residual = 5.45494e-09, No Iterations 2
DILUPBiCG:  Solving for T, Initial residual = 1.62386e-06, Final residual = 2.55598e-10, No Iterations 2
 T goes from min(T) [0 0 0 0 0 0 0] -0.00130974 to max(T) [0 0 0 0 0 0 0] 0.909805

ExecutionTime = 16.42 s  ClockTime = 319 s

Time = 1.07
Courant Number mean: 0.33779 max: 0.627594
DILUPBiCG:  Solving for T, Initial residual = 0.0191461, Final residual = 6.53629e-10, No Iterations 4
DILUPBiCG:  Solving for T, Initial residual = 0.000515821, Final residual = 5.35532e-10, No Iterations 3
DILUPBiCG:  Solving for T, Initial residual = 2.38044e-05, Final residual = 5.40246e-09, No Iterations 2
DILUPBiCG:  Solving for T, Initial residual = 1.66715e-06, Final residual = 2.50337e-10, No Iterations 2
 T goes from min(T) [0 0 0 0 0 0 0] -0.00149311 to max(T) [0 0 0 0 0 0 0] 0.910408

ExecutionTime = 16.55 s  ClockTime = 322 s

Time = 1.08
Courant Number mean: 0.337235 max: 0.625612
DILUPBiCG:  Solving for T, Initial residual = 0.0192582, Final residual = 5.39164e-10, No Iterations 4
DILUPBiCG:  Solving for T, Initial residual = 0.000523708, Final residual = 5.0204e-10, No Iterations 3
DILUPBiCG:  Solving for T, Initial residual = 2.4321e-05, Final residual = 5.29148e-09, No Iterations 2
DILUPBiCG:  Solving for T, Initial residual = 1.70321e-06, Final residual = 2.50507e-10, No Iterations 2
 T goes from min(T) [0 0 0 0 0 0 0] -0.00169504 to max(T) [0 0 0 0 0 0 0] 0.909789

ExecutionTime = 16.68 s  ClockTime = 324 s

Time = 1.09
Courant Number mean: 0.336619 max: 0.62368
DILUPBiCG:  Solving for T, Initial residual = 0.0193698, Final residual = 4.34363e-10, No Iterations 4
DILUPBiCG:  Solving for T, Initial residual = 0.000531135, Final residual = 4.87348e-10, No Iterations 3
DILUPBiCG:  Solving for T, Initial residual = 2.47914e-05, Final residual = 5.06845e-09, No Iterations 2
DILUPBiCG:  Solving for T, Initial residual = 1.73908e-06, Final residual = 2.45072e-10, No Iterations 2
 T goes from min(T) [0 0 0 0 0 0 0] -0.00183568 to max(T) [0 0 0 0 0 0 0] 0.910176

ExecutionTime = 16.82 s  ClockTime = 327 s

Time = 1.1
Courant Number mean: 0.33594 max: 0.621687
DILUPBiCG:  Solving for T, Initial residual = 0.0194982, Final residual = 3.44012e-10, No Iterations 4
DILUPBiCG:  Solving for T, Initial residual = 0.000536683, Final residual = 4.8217e-10, No Iterations 3
DILUPBiCG:  Solving for T, Initial residual = 2.53317e-05, Final residual = 4.87147e-09, No Iterations 2
DILUPBiCG:  Solving for T, Initial residual = 1.78523e-06, Final residual = 2.35272e-10, No Iterations 2
 T goes from min(T) [0 0 0 0 0 0 0] -0.00202251 to max(T) [0 0 0 0 0 0 0] 0.910055

ExecutionTime = 16.94 s  ClockTime = 329 s

Time = 1.11
Courant Number mean: 0.335344 max: 0.619709
DILUPBiCG:  Solving for T, Initial residual = 0.0195844, Final residual = 2.76946e-10, No Iterations 4
DILUPBiCG:  Solving for T, Initial residual = 0.000544728, Final residual = 4.73326e-10, No Iterations 3
DILUPBiCG:  Solving for T, Initial residual = 2.57982e-05, Final residual = 4.64479e-09, No Iterations 2
DILUPBiCG:  Solving for T, Initial residual = 1.81944e-06, Final residual = 2.25264e-10, No Iterations 2
 T goes from min(T) [0 0 0 0 0 0 0] -0.00214433 to max(T) [0 0 0 0 0 0 0] 0.910128

ExecutionTime = 17.08 s  ClockTime = 332 s

Time = 1.12
Courant Number mean: 0.334792 max: 0.617693
DILUPBiCG:  Solving for T, Initial residual = 0.0197083, Final residual = 2.25333e-10, No Iterations 4
DILUPBiCG:  Solving for T, Initial residual = 0.00055215, Final residual = 4.70924e-10, No Iterations 3
DILUPBiCG:  Solving for T, Initial residual = 2.63475e-05, Final residual = 4.43758e-09, No Iterations 2
DILUPBiCG:  Solving for T, Initial residual = 1.85489e-06, Final residual = 2.18656e-10, No Iterations 2
 T goes from min(T) [0 0 0 0 0 0 0] -0.00239855 to max(T) [0 0 0 0 0 0 0] 0.910135

ExecutionTime = 17.2 s  ClockTime = 334 s

Time = 1.13
Courant Number mean: 0.334175 max: 0.615672
DILUPBiCG:  Solving for T, Initial residual = 0.019816, Final residual = 1.87531e-10, No Iterations 4
DILUPBiCG:  Solving for T, Initial residual = 0.000558134, Final residual = 4.66353e-10, No Iterations 3
DILUPBiCG:  Solving for T, Initial residual = 2.68951e-05, Final residual = 4.27916e-09, No Iterations 2
DILUPBiCG:  Solving for T, Initial residual = 1.89915e-06, Final residual = 2.11843e-10, No Iterations 2
 T goes from min(T) [0 0 0 0 0 0 0] -0.00268898 to max(T) [0 0 0 0 0 0 0] 0.910068

ExecutionTime = 17.34 s  ClockTime = 337 s

Time = 1.14
Courant Number mean: 0.333503 max: 0.613645
DILUPBiCG:  Solving for T, Initial residual = 0.0199085, Final residual = 1.60658e-10, No Iterations 4
DILUPBiCG:  Solving for T, Initial residual = 0.000566604, Final residual = 4.53761e-10, No Iterations 3
DILUPBiCG:  Solving for T, Initial residual = 2.72105e-05, Final residual = 4.10281e-09, No Iterations 2
DILUPBiCG:  Solving for T, Initial residual = 1.93327e-06, Final residual = 2.07008e-10, No Iterations 2
 T goes from min(T) [0 0 0 0 0 0 0] -0.00290297 to max(T) [0 0 0 0 0 0 0] 0.909927

ExecutionTime = 17.5 s  ClockTime = 340 s

Time = 1.15
Courant Number mean: 0.332872 max: 0.61158
DILUPBiCG:  Solving for T, Initial residual = 0.0200528, Final residual = 1.41886e-10, No Iterations 4
DILUPBiCG:  Solving for T, Initial residual = 0.000572982, Final residual = 4.41585e-10, No Iterations 3
DILUPBiCG:  Solving for T, Initial residual = 2.78377e-05, Final residual = 3.88786e-09, No Iterations 2
DILUPBiCG:  Solving for T, Initial residual = 1.96773e-06, Final residual = 2.04838e-10, No Iterations 2
 T goes from min(T) [0 0 0 0 0 0 0] -0.00315454 to max(T) [0 0 0 0 0 0 0] 0.909707

ExecutionTime = 17.63 s  ClockTime = 342 s

Time = 1.16
Courant Number mean: 0.332324 max: 0.609531
DILUPBiCG:  Solving for T, Initial residual = 0.020133, Final residual = 1.27966e-10, No Iterations 4
DILUPBiCG:  Solving for T, Initial residual = 0.000579275, Final residual = 4.29403e-10, No Iterations 3
DILUPBiCG:  Solving for T, Initial residual = 2.8405e-05, Final residual = 3.77445e-09, No Iterations 2
DILUPBiCG:  Solving for T, Initial residual = 2.00847e-06, Final residual = 2.02758e-10, No Iterations 2
 T goes from min(T) [0 0 0 0 0 0 0] -0.0033281 to max(T) [0 0 0 0 0 0 0] 0.909396

ExecutionTime = 17.77 s  ClockTime = 345 s

Time = 1.17
Courant Number mean: 0.331716 max: 0.607422
DILUPBiCG:  Solving for T, Initial residual = 0.0202289, Final residual = 1.16022e-10, No Iterations 4
DILUPBiCG:  Solving for T, Initial residual = 0.00058711, Final residual = 4.1149e-10, No Iterations 3
DILUPBiCG:  Solving for T, Initial residual = 2.86303e-05, Final residual = 3.70971e-09, No Iterations 2
DILUPBiCG:  Solving for T, Initial residual = 2.04132e-06, Final residual = 2.01188e-10, No Iterations 2
 T goes from min(T) [0 0 0 0 0 0 0] -0.00365343 to max(T) [0 0 0 0 0 0 0] 0.908977

ExecutionTime = 17.9 s  ClockTime = 347 s

Time = 1.18
Courant Number mean: 0.331049 max: 0.605362
DILUPBiCG:  Solving for T, Initial residual = 0.0203654, Final residual = 1.07081e-10, No Iterations 4
DILUPBiCG:  Solving for T, Initial residual = 0.000593657, Final residual = 4.00394e-10, No Iterations 3
DILUPBiCG:  Solving for T, Initial residual = 2.93129e-05, Final residual = 3.58585e-09, No Iterations 2
DILUPBiCG:  Solving for T, Initial residual = 2.07871e-06, Final residual = 1.99638e-10, No Iterations 2
 T goes from min(T) [0 0 0 0 0 0 0] -0.0040434 to max(T) [0 0 0 0 0 0 0] 0.908426

ExecutionTime = 18.03 s  ClockTime = 350 s

Time = 1.19
Courant Number mean: 0.330383 max: 0.603213
DILUPBiCG:  Solving for T, Initial residual = 0.0204738, Final residual = 1.00678e-10, No Iterations 4
DILUPBiCG:  Solving for T, Initial residual = 0.000600971, Final residual = 3.81374e-10, No Iterations 3
DILUPBiCG:  Solving for T, Initial residual = 2.98744e-05, Final residual = 3.46193e-09, No Iterations 2
DILUPBiCG:  Solving for T, Initial residual = 2.11399e-06, Final residual = 1.98638e-10, No Iterations 2
 T goes from min(T) [0 0 0 0 0 0 0] -0.00434554 to max(T) [0 0 0 0 0 0 0] 0.907712

ExecutionTime = 18.16 s  ClockTime = 352 s

Time = 1.2
Courant Number mean: 0.329838 max: 0.601131
DILUPBiCG:  Solving for T, Initial residual = 0.0205566, Final residual = 9.45098e-11, No Iterations 4
DILUPBiCG:  Solving for T, Initial residual = 0.000608278, Final residual = 3.55017e-10, No Iterations 3
DILUPBiCG:  Solving for T, Initial residual = 2.99998e-05, Final residual = 3.41801e-09, No Iterations 2
DILUPBiCG:  Solving for T, Initial residual = 2.14597e-06, Final residual = 1.97878e-10, No Iterations 2
 T goes from min(T) [0 0 0 0 0 0 0] -0.00468182 to max(T) [0 0 0 0 0 0 0] 0.907162

ExecutionTime = 18.29 s  ClockTime = 355 s

Time = 1.21
Courant Number mean: 0.329232 max: 0.598937
DILUPBiCG:  Solving for T, Initial residual = 0.0207055, Final residual = 8.90995e-11, No Iterations 4
DILUPBiCG:  Solving for T, Initial residual = 0.000613988, Final residual = 3.37106e-10, No Iterations 3
DILUPBiCG:  Solving for T, Initial residual = 3.07058e-05, Final residual = 3.32327e-09, No Iterations 2
DILUPBiCG:  Solving for T, Initial residual = 2.18453e-06, Final residual = 1.95596e-10, No Iterations 2
 T goes from min(T) [0 0 0 0 0 0 0] -0.00491328 to max(T) [0 0 0 0 0 0 0] 0.905646

ExecutionTime = 18.42 s  ClockTime = 357 s

Time = 1.22
Courant Number mean: 0.328574 max: 0.596844
DILUPBiCG:  Solving for T, Initial residual = 0.0208043, Final residual = 8.46227e-11, No Iterations 4
DILUPBiCG:  Solving for T, Initial residual = 0.000621247, Final residual = 3.2044e-10, No Iterations 3
DILUPBiCG:  Solving for T, Initial residual = 3.13317e-05, Final residual = 3.20522e-09, No Iterations 2
DILUPBiCG:  Solving for T, Initial residual = 2.21635e-06, Final residual = 1.95155e-10, No Iterations 2
 T goes from min(T) [0 0 0 0 0 0 0] -0.00529358 to max(T) [0 0 0 0 0 0 0] 0.907025

ExecutionTime = 18.55 s  ClockTime = 360 s

Time = 1.23
Courant Number mean: 0.327876 max: 0.594613
DILUPBiCG:  Solving for T, Initial residual = 0.0208748, Final residual = 7.97467e-11, No Iterations 4
DILUPBiCG:  Solving for T, Initial residual = 0.000628693, Final residual = 3.05468e-10, No Iterations 3
DILUPBiCG:  Solving for T, Initial residual = 3.13852e-05, Final residual = 3.1265e-09, No Iterations 2
DILUPBiCG:  Solving for T, Initial residual = 2.24667e-06, Final residual = 1.95331e-10, No Iterations 2
 T goes from min(T) [0 0 0 0 0 0 0] -0.00578621 to max(T) [0 0 0 0 0 0 0] 0.904609

ExecutionTime = 18.68 s  ClockTime = 362 s

Time = 1.24
Courant Number mean: 0.327335 max: 0.592498
DILUPBiCG:  Solving for T, Initial residual = 0.0210172, Final residual = 9.98674e-09, No Iterations 3
DILUPBiCG:  Solving for T, Initial residual = 0.000635476, Final residual = 2.96717e-10, No Iterations 3
DILUPBiCG:  Solving for T, Initial residual = 3.20407e-05, Final residual = 3.06047e-09, No Iterations 2
DILUPBiCG:  Solving for T, Initial residual = 2.28064e-06, Final residual = 1.9497e-10, No Iterations 2
 T goes from min(T) [0 0 0 0 0 0 0] -0.00618844 to max(T) [0 0 0 0 0 0 0] 0.905934

ExecutionTime = 18.81 s  ClockTime = 365 s

Time = 1.25
Courant Number mean: 0.326739 max: 0.590223
DILUPBiCG:  Solving for T, Initial residual = 0.0211373, Final residual = 9.64671e-09, No Iterations 3
DILUPBiCG:  Solving for T, Initial residual = 0.000642593, Final residual = 2.93448e-10, No Iterations 3
DILUPBiCG:  Solving for T, Initial residual = 3.26947e-05, Final residual = 2.94551e-09, No Iterations 2
DILUPBiCG:  Solving for T, Initial residual = 2.30988e-06, Final residual = 1.96097e-10, No Iterations 2
 T goes from min(T) [0 0 0 0 0 0 0] -0.00663398 to max(T) [0 0 0 0 0 0 0] 0.905588

ExecutionTime = 18.94 s  ClockTime = 367 s

Time = 1.26
Courant Number mean: 0.32609 max: 0.588096
DILUPBiCG:  Solving for T, Initial residual = 0.0212057, Final residual = 9.35318e-09, No Iterations 3
DILUPBiCG:  Solving for T, Initial residual = 0.000648497, Final residual = 2.84601e-10, No Iterations 3
DILUPBiCG:  Solving for T, Initial residual = 3.27601e-05, Final residual = 2.84416e-09, No Iterations 2
DILUPBiCG:  Solving for T, Initial residual = 2.34016e-06, Final residual = 1.96328e-10, No Iterations 2
 T goes from min(T) [0 0 0 0 0 0 0] -0.00692583 to max(T) [0 0 0 0 0 0 0] 0.905944

ExecutionTime = 19.08 s  ClockTime = 370 s

Time = 1.27
Courant Number mean: 0.32539 max: 0.585811
DILUPBiCG:  Solving for T, Initial residual = 0.0213352, Final residual = 9.1063e-09, No Iterations 3
DILUPBiCG:  Solving for T, Initial residual = 0.00065455, Final residual = 2.75717e-10, No Iterations 3
DILUPBiCG:  Solving for T, Initial residual = 3.33066e-05, Final residual = 2.79672e-09, No Iterations 2
DILUPBiCG:  Solving for T, Initial residual = 2.37118e-06, Final residual = 1.972e-10, No Iterations 2
 T goes from min(T) [0 0 0 0 0 0 0] -0.00732566 to max(T) [0 0 0 0 0 0 0] 0.906131

ExecutionTime = 19.21 s  ClockTime = 372 s

Time = 1.28
Courant Number mean: 0.324838 max: 0.583638
DILUPBiCG:  Solving for T, Initial residual = 0.0214404, Final residual = 8.87832e-09, No Iterations 3
DILUPBiCG:  Solving for T, Initial residual = 0.000660574, Final residual = 2.72536e-10, No Iterations 3
DILUPBiCG:  Solving for T, Initial residual = 3.3989e-05, Final residual = 2.74541e-09, No Iterations 2
DILUPBiCG:  Solving for T, Initial residual = 2.39529e-06, Final residual = 1.977e-10, No Iterations 2
 T goes from min(T) [0 0 0 0 0 0 0] -0.00791719 to max(T) [0 0 0 0 0 0 0] 0.906081

ExecutionTime = 19.35 s  ClockTime = 374 s

Time = 1.29
Courant Number mean: 0.324253 max: 0.581334
DILUPBiCG:  Solving for T, Initial residual = 0.0214915, Final residual = 8.65554e-09, No Iterations 3
DILUPBiCG:  Solving for T, Initial residual = 0.000668235, Final residual = 2.65041e-10, No Iterations 3
DILUPBiCG:  Solving for T, Initial residual = 3.41496e-05, Final residual = 2.68102e-09, No Iterations 2
DILUPBiCG:  Solving for T, Initial residual = 2.43046e-06, Final residual = 1.95153e-10, No Iterations 2
 T goes from min(T) [0 0 0 0 0 0 0] -0.00843023 to max(T) [0 0 0 0 0 0 0] 0.905717

ExecutionTime = 19.48 s  ClockTime = 377 s

Time = 1.3
Courant Number mean: 0.323613 max: 0.579124
DILUPBiCG:  Solving for T, Initial residual = 0.0216213, Final residual = 8.49373e-09, No Iterations 3
DILUPBiCG:  Solving for T, Initial residual = 0.000675564, Final residual = 2.5557e-10, No Iterations 3
DILUPBiCG:  Solving for T, Initial residual = 3.44555e-05, Final residual = 2.65493e-09, No Iterations 2
DILUPBiCG:  Solving for T, Initial residual = 2.45732e-06, Final residual = 1.92687e-10, No Iterations 2
 T goes from min(T) [0 0 0 0 0 0 0] -0.00900994 to max(T) [0 0 0 0 0 0 0] 0.904956

ExecutionTime = 19.6 s  ClockTime = 379 s

Time = 1.31
Courant Number mean: 0.322924 max: 0.57681
DILUPBiCG:  Solving for T, Initial residual = 0.021761, Final residual = 8.29334e-09, No Iterations 3
DILUPBiCG:  Solving for T, Initial residual = 0.000680753, Final residual = 2.5221e-10, No Iterations 3
DILUPBiCG:  Solving for T, Initial residual = 3.51783e-05, Final residual = 2.64302e-09, No Iterations 2
DILUPBiCG:  Solving for T, Initial residual = 2.4797e-06, Final residual = 1.91642e-10, No Iterations 2
 T goes from min(T) [0 0 0 0 0 0 0] -0.00936059 to max(T) [0 0 0 0 0 0 0] 0.90371

[...]
 T goes from min(T) [0 0 0 0 0 0 0] -0.107323 to max(T) [0 0 0 0 0 0 0] 0.750062

ExecutionTime = 78.72 s  ClockTime = 1262 s

Time = 5.68
Courant Number mean: 0.35862 max: 0.690864
DILUPBiCG:  Solving for T, Initial residual = 0.0148909, Final residual = 3.24353e-09, No Iterations 3
DILUPBiCG:  Solving for T, Initial residual = 0.000426787, Final residual = 6.43022e-11, No Iterations 3
DILUPBiCG:  Solving for T, Initial residual = 2.43126e-05, Final residual = 3.89778e-10, No Iterations 2
DILUPBiCG:  Solving for T, Initial residual = 2.03738e-06, Final residual = 2.99315e-11, No Iterations 2
 T goes from min(T) [0 0 0 0 0 0 0] -0.107616 to max(T) [0 0 0 0 0 0 0] 0.749988

ExecutionTime = 78.85 s  ClockTime = 1263 s

Time = 5.69
Courant Number mean: 0.358117 max: 0.689516
DILUPBiCG:  Solving for T, Initial residual = 0.0149844, Final residual = 4.08432e-09, No Iterations 3
DILUPBiCG:  Solving for T, Initial residual = 0.000429781, Final residual = 8.89876e-09, No Iterations 2
DILUPBiCG:  Solving for T, Initial residual = 2.44788e-05, Final residual = 3.80013e-10, No Iterations 2
DILUPBiCG:  Solving for T, Initial residual = 2.04704e-06, Final residual = 2.95351e-11, No Iterations 2
 T goes from min(T) [0 0 0 0 0 0 0] -0.10827 to max(T) [0 0 0 0 0 0 0] 0.749319

ExecutionTime = 78.99 s  ClockTime = 1265 s

Time = 5.7
Courant Number mean: 0.357753 max: 0.688251
DILUPBiCG:  Solving for T, Initial residual = 0.0150411, Final residual = 7.54205e-09, No Iterations 3
DILUPBiCG:  Solving for T, Initial residual = 0.000433147, Final residual = 8.48473e-09, No Iterations 2
DILUPBiCG:  Solving for T, Initial residual = 2.45259e-05, Final residual = 3.73862e-10, No Iterations 2
DILUPBiCG:  Solving for T, Initial residual = 2.04748e-06, Final residual = 2.95608e-11, No Iterations 2
 T goes from min(T) [0 0 0 0 0 0 0] -0.107293 to max(T) [0 0 0 0 0 0 0] 0.74803

ExecutionTime = 79.15 s  ClockTime = 1267 s

Time = 5.71
Courant Number mean: 0.357313 max: 0.686848
DILUPBiCG:  Solving for T, Initial residual = 0.0151247, Final residual = 3.54971e-09, No Iterations 3
DILUPBiCG:  Solving for T, Initial residual = 0.000434314, Final residual = 8.15594e-09, No Iterations 2
DILUPBiCG:  Solving for T, Initial residual = 2.4618e-05, Final residual = 3.72268e-10, No Iterations 2
DILUPBiCG:  Solving for T, Initial residual = 2.05257e-06, Final residual = 3.07397e-11, No Iterations 2
 T goes from min(T) [0 0 0 0 0 0 0] -0.106416 to max(T) [0 0 0 0 0 0 0] 0.746095

ExecutionTime = 79.28 s  ClockTime = 1269 s

Time = 5.72
Courant Number mean: 0.356808 max: 0.685568
DILUPBiCG:  Solving for T, Initial residual = 0.0151976, Final residual = 3.56025e-09, No Iterations 3
DILUPBiCG:  Solving for T, Initial residual = 0.000436041, Final residual = 7.95348e-09, No Iterations 2
DILUPBiCG:  Solving for T, Initial residual = 2.47507e-05, Final residual = 3.75004e-10, No Iterations 2
DILUPBiCG:  Solving for T, Initial residual = 2.06201e-06, Final residual = 4.38876e-11, No Iterations 2
 T goes from min(T) [0 0 0 0 0 0 0] -0.107526 to max(T) [0 0 0 0 0 0 0] 0.746291

ExecutionTime = 79.42 s  ClockTime = 1270 s

Time = 5.73
Courant Number mean: 0.356249 max: 0.684118
DILUPBiCG:  Solving for T, Initial residual = 0.0152753, Final residual = 3.65475e-09, No Iterations 3
DILUPBiCG:  Solving for T, Initial residual = 0.000439775, Final residual = 7.85419e-09, No Iterations 2
DILUPBiCG:  Solving for T, Initial residual = 2.48016e-05, Final residual = 3.83941e-10, No Iterations 2
DILUPBiCG:  Solving for T, Initial residual = 2.05918e-06, Final residual = 2.99792e-11, No Iterations 2
 T goes from min(T) [0 0 0 0 0 0 0] -0.107016 to max(T) [0 0 0 0 0 0 0] 0.74607

ExecutionTime = 79.55 s  ClockTime = 1272 s

Time = 5.74
Courant Number mean: 0.355874 max: 0.682813
DILUPBiCG:  Solving for T, Initial residual = 0.0153558, Final residual = 3.75085e-09, No Iterations 3
DILUPBiCG:  Solving for T, Initial residual = 0.000441222, Final residual = 7.8148e-09, No Iterations 2
DILUPBiCG:  Solving for T, Initial residual = 2.4937e-05, Final residual = 4.51183e-10, No Iterations 2
DILUPBiCG:  Solving for T, Initial residual = 2.06053e-06, Final residual = 2.92483e-11, No Iterations 2
 T goes from min(T) [0 0 0 0 0 0 0] -0.104876 to max(T) [0 0 0 0 0 0 0] 0.746229

ExecutionTime = 79.68 s  ClockTime = 1273 s

Time = 5.75
Courant Number mean: 0.355424 max: 0.681306
DILUPBiCG:  Solving for T, Initial residual = 0.015428, Final residual = 3.82847e-09, No Iterations 3
DILUPBiCG:  Solving for T, Initial residual = 0.000443713, Final residual = 7.84562e-09, No Iterations 2
DILUPBiCG:  Solving for T, Initial residual = 2.49501e-05, Final residual = 1.31283e-09, No Iterations 2
DILUPBiCG:  Solving for T, Initial residual = 2.07051e-06, Final residual = 2.90681e-11, No Iterations 2
 T goes from min(T) [0 0 0 0 0 0 0] -0.106309 to max(T) [0 0 0 0 0 0 0] 0.746663

ExecutionTime = 79.82 s  ClockTime = 1275 s

Time = 5.76
Courant Number mean: 0.354909 max: 0.679987
DILUPBiCG:  Solving for T, Initial residual = 0.0154985, Final residual = 3.88242e-09, No Iterations 3
DILUPBiCG:  Solving for T, Initial residual = 0.000447327, Final residual = 7.91922e-09, No Iterations 2
DILUPBiCG:  Solving for T, Initial residual = 2.50141e-05, Final residual = 5.08561e-10, No Iterations 2
DILUPBiCG:  Solving for T, Initial residual = 2.07137e-06, Final residual = 2.89187e-11, No Iterations 2
 T goes from min(T) [0 0 0 0 0 0 0] -0.106433 to max(T) [0 0 0 0 0 0 0] 0.746651

ExecutionTime = 79.95 s  ClockTime = 1277 s

Time = 5.77
Courant Number mean: 0.354322 max: 0.678467
DILUPBiCG:  Solving for T, Initial residual = 0.0155899, Final residual = 3.91218e-09, No Iterations 3
DILUPBiCG:  Solving for T, Initial residual = 0.000448216, Final residual = 8.00925e-09, No Iterations 2
DILUPBiCG:  Solving for T, Initial residual = 2.51965e-05, Final residual = 4.68046e-10, No Iterations 2
DILUPBiCG:  Solving for T, Initial residual = 2.06903e-06, Final residual = 2.87709e-11, No Iterations 2
 T goes from min(T) [0 0 0 0 0 0 0] -0.105423 to max(T) [0 0 0 0 0 0 0] 0.746176

ExecutionTime = 80.08 s  ClockTime = 1278 s

Time = 5.78
Courant Number mean: 0.353916 max: 0.67709
DILUPBiCG:  Solving for T, Initial residual = 0.0156716, Final residual = 3.9134e-09, No Iterations 3
DILUPBiCG:  Solving for T, Initial residual = 0.000451087, Final residual = 8.06266e-09, No Iterations 2
DILUPBiCG:  Solving for T, Initial residual = 2.52369e-05, Final residual = 4.75827e-10, No Iterations 2
DILUPBiCG:  Solving for T, Initial residual = 2.07418e-06, Final residual = 2.9095e-11, No Iterations 2
 T goes from min(T) [0 0 0 0 0 0 0] -0.104584 to max(T) [0 0 0 0 0 0 0] 0.745221

ExecutionTime = 80.21 s  ClockTime = 1280 s

Time = 5.79
Courant Number mean: 0.353469 max: 0.675546
DILUPBiCG:  Solving for T, Initial residual = 0.015764, Final residual = 3.88573e-09, No Iterations 3
DILUPBiCG:  Solving for T, Initial residual = 0.000454639, Final residual = 8.33073e-09, No Iterations 2
DILUPBiCG:  Solving for T, Initial residual = 2.52866e-05, Final residual = 5.3461e-10, No Iterations 2
DILUPBiCG:  Solving for T, Initial residual = 2.07768e-06, Final residual = 2.98208e-11, No Iterations 2
 T goes from min(T) [0 0 0 0 0 0 0] -0.105767 to max(T) [0 0 0 0 0 0 0] 0.743765

ExecutionTime = 80.35 s  ClockTime = 1281 s

Time = 5.8
Courant Number mean: 0.352941 max: 0.674122
DILUPBiCG:  Solving for T, Initial residual = 0.0158605, Final residual = 3.83448e-09, No Iterations 3
DILUPBiCG:  Solving for T, Initial residual = 0.000456124, Final residual = 8.40222e-09, No Iterations 2
DILUPBiCG:  Solving for T, Initial residual = 2.53772e-05, Final residual = 7.55735e-10, No Iterations 2
DILUPBiCG:  Solving for T, Initial residual = 2.08182e-06, Final residual = 3.06498e-11, No Iterations 2
 T goes from min(T) [0 0 0 0 0 0 0] -0.105466 to max(T) [0 0 0 0 0 0 0] 0.742201

ExecutionTime = 80.48 s  ClockTime = 1283 s

Time = 5.81
Courant Number mean: 0.352338 max: 0.672564
DILUPBiCG:  Solving for T, Initial residual = 0.0159404, Final residual = 3.73549e-09, No Iterations 3
DILUPBiCG:  Solving for T, Initial residual = 0.000458347, Final residual = 8.29085e-09, No Iterations 2
DILUPBiCG:  Solving for T, Initial residual = 2.54696e-05, Final residual = 3.48942e-09, No Iterations 2
DILUPBiCG:  Solving for T, Initial residual = 2.08531e-06, Final residual = 3.07034e-11, No Iterations 2
 T goes from min(T) [0 0 0 0 0 0 0] -0.104023 to max(T) [0 0 0 0 0 0 0] 0.741923

ExecutionTime = 80.61 s  ClockTime = 1285 s

Time = 5.82
Courant Number mean: 0.351882 max: 0.671086
DILUPBiCG:  Solving for T, Initial residual = 0.0160321, Final residual = 3.60114e-09, No Iterations 3
DILUPBiCG:  Solving for T, Initial residual = 0.000462009, Final residual = 8.1076e-09, No Iterations 2
DILUPBiCG:  Solving for T, Initial residual = 2.55019e-05, Final residual = 1.70328e-09, No Iterations 2
DILUPBiCG:  Solving for T, Initial residual = 2.08536e-06, Final residual = 3.02037e-11, No Iterations 2
 T goes from min(T) [0 0 0 0 0 0 0] -0.104449 to max(T) [0 0 0 0 0 0 0] 0.741304

ExecutionTime = 80.74 s  ClockTime = 1286 s

Time = 5.83
Courant Number mean: 0.351423 max: 0.669504
DILUPBiCG:  Solving for T, Initial residual = 0.016134, Final residual = 3.45197e-09, No Iterations 3
DILUPBiCG:  Solving for T, Initial residual = 0.000463703, Final residual = 7.94041e-09, No Iterations 2
DILUPBiCG:  Solving for T, Initial residual = 2.55997e-05, Final residual = 1.2142e-09, No Iterations 2
DILUPBiCG:  Solving for T, Initial residual = 2.08852e-06, Final residual = 2.98127e-11, No Iterations 2
 T goes from min(T) [0 0 0 0 0 0 0] -0.104932 to max(T) [0 0 0 0 0 0 0] 0.741625

ExecutionTime = 80.88 s  ClockTime = 1288 s

Time = 5.84
Courant Number mean: 0.350889 max: 0.667978
DILUPBiCG:  Solving for T, Initial residual = 0.0162209, Final residual = 3.2965e-09, No Iterations 3
DILUPBiCG:  Solving for T, Initial residual = 0.00046562, Final residual = 7.89078e-09, No Iterations 2
DILUPBiCG:  Solving for T, Initial residual = 2.57079e-05, Final residual = 9.8681e-10, No Iterations 2
DILUPBiCG:  Solving for T, Initial residual = 2.08364e-06, Final residual = 2.94615e-11, No Iterations 2
 T goes from min(T) [0 0 0 0 0 0 0] -0.104174 to max(T) [0 0 0 0 0 0 0] 0.742235

ExecutionTime = 81.01 s  ClockTime = 1289 s

Time = 5.85
Courant Number mean: 0.350284 max: 0.666383
DILUPBiCG:  Solving for T, Initial residual = 0.0163101, Final residual = 3.1184e-09, No Iterations 3
DILUPBiCG:  Solving for T, Initial residual = 0.000469423, Final residual = 7.86036e-09, No Iterations 2
DILUPBiCG:  Solving for T, Initial residual = 2.56966e-05, Final residual = 6.81247e-10, No Iterations 2
DILUPBiCG:  Solving for T, Initial residual = 2.08929e-06, Final residual = 2.96854e-11, No Iterations 2
 T goes from min(T) [0 0 0 0 0 0 0] -0.102773 to max(T) [0 0 0 0 0 0 0] 0.741412

ExecutionTime = 81.14 s  ClockTime = 1291 s

Time = 5.86
Courant Number mean: 0.349772 max: 0.664806
DILUPBiCG:  Solving for T, Initial residual = 0.0164171, Final residual = 2.92218e-09, No Iterations 3
DILUPBiCG:  Solving for T, Initial residual = 0.000471009, Final residual = 7.82436e-09, No Iterations 2
DILUPBiCG:  Solving for T, Initial residual = 2.57745e-05, Final residual = 5.0792e-10, No Iterations 2
DILUPBiCG:  Solving for T, Initial residual = 2.09274e-06, Final residual = 3.04545e-11, No Iterations 2
 T goes from min(T) [0 0 0 0 0 0 0] -0.103754 to max(T) [0 0 0 0 0 0 0] 0.741385

ExecutionTime = 81.28 s  ClockTime = 1293 s

Time = 5.87
Courant Number mean: 0.3493 max: 0.663186
DILUPBiCG:  Solving for T, Initial residual = 0.016497, Final residual = 2.72188e-09, No Iterations 3
DILUPBiCG:  Solving for T, Initial residual = 0.000472807, Final residual = 7.81208e-09, No Iterations 2
DILUPBiCG:  Solving for T, Initial residual = 2.59153e-05, Final residual = 4.26692e-10, No Iterations 2
DILUPBiCG:  Solving for T, Initial residual = 2.087e-06, Final residual = 3.16375e-11, No Iterations 2
 T goes from min(T) [0 0 0 0 0 0 0] -0.103558 to max(T) [0 0 0 0 0 0 0] 0.741011

ExecutionTime = 81.41 s  ClockTime = 1294 s

Time = 5.88
Courant Number mean: 0.34876 max: 0.661559
DILUPBiCG:  Solving for T, Initial residual = 0.0165879, Final residual = 2.51036e-09, No Iterations 3
DILUPBiCG:  Solving for T, Initial residual = 0.000476783, Final residual = 7.77867e-09, No Iterations 2
DILUPBiCG:  Solving for T, Initial residual = 2.58534e-05, Final residual = 4.24606e-10, No Iterations 2
DILUPBiCG:  Solving for T, Initial residual = 2.09066e-06, Final residual = 4.24331e-11, No Iterations 2
 T goes from min(T) [0 0 0 0 0 0 0] -0.103126 to max(T) [0 0 0 0 0 0 0] 0.740556

ExecutionTime = 81.54 s  ClockTime = 1296 s

Time = 5.89
Courant Number mean: 0.348155 max: 0.659927
DILUPBiCG:  Solving for T, Initial residual = 0.0167023, Final residual = 2.29082e-09, No Iterations 3
DILUPBiCG:  Solving for T, Initial residual = 0.000478449, Final residual = 7.71536e-09, No Iterations 2
DILUPBiCG:  Solving for T, Initial residual = 2.59879e-05, Final residual = 4.15792e-10, No Iterations 2
DILUPBiCG:  Solving for T, Initial residual = 2.09595e-06, Final residual = 5.42998e-11, No Iterations 2
 T goes from min(T) [0 0 0 0 0 0 0] -0.102159 to max(T) [0 0 0 0 0 0 0] 0.739794

ExecutionTime = 81.68 s  ClockTime = 1297 s

Time = 5.9
Courant Number mean: 0.34759 max: 0.658252
DILUPBiCG:  Solving for T, Initial residual = 0.0167833, Final residual = 2.09569e-09, No Iterations 3
DILUPBiCG:  Solving for T, Initial residual = 0.000479919, Final residual = 7.69491e-09, No Iterations 2
DILUPBiCG:  Solving for T, Initial residual = 2.6083e-05, Final residual = 4.17802e-10, No Iterations 2
DILUPBiCG:  Solving for T, Initial residual = 2.0891e-06, Final residual = 1.07975e-10, No Iterations 2
 T goes from min(T) [0 0 0 0 0 0 0] -0.102305 to max(T) [0 0 0 0 0 0 0] 0.738714

ExecutionTime = 81.81 s  ClockTime = 1299 s

Time = 5.91
Courant Number mean: 0.347109 max: 0.656595
DILUPBiCG:  Solving for T, Initial residual = 0.0168629, Final residual = 1.92071e-09, No Iterations 3
DILUPBiCG:  Solving for T, Initial residual = 0.000483059, Final residual = 7.71507e-09, No Iterations 2
DILUPBiCG:  Solving for T, Initial residual = 2.60499e-05, Final residual = 4.56107e-10, No Iterations 2
DILUPBiCG:  Solving for T, Initial residual = 2.08434e-06, Final residual = 3.2909e-11, No Iterations 2
 T goes from min(T) [0 0 0 0 0 0 0] -0.102703 to max(T) [0 0 0 0 0 0 0] 0.737302

ExecutionTime = 81.95 s  ClockTime = 1301 s

Time = 5.92
Courant Number mean: 0.346565 max: 0.65487
DILUPBiCG:  Solving for T, Initial residual = 0.0169676, Final residual = 1.79782e-09, No Iterations 3
DILUPBiCG:  Solving for T, Initial residual = 0.000485595, Final residual = 7.70511e-09, No Iterations 2
DILUPBiCG:  Solving for T, Initial residual = 2.61352e-05, Final residual = 1.45965e-09, No Iterations 2
DILUPBiCG:  Solving for T, Initial residual = 2.0899e-06, Final residual = 3.04338e-11, No Iterations 2
 T goes from min(T) [0 0 0 0 0 0 0] -0.101719 to max(T) [0 0 0 0 0 0 0] 0.735543

ExecutionTime = 82.08 s  ClockTime = 1302 s

Time = 5.93
Courant Number mean: 0.34595 max: 0.6532
DILUPBiCG:  Solving for T, Initial residual = 0.0170701, Final residual = 1.7828e-09, No Iterations 3
DILUPBiCG:  Solving for T, Initial residual = 0.000486662, Final residual = 7.71768e-09, No Iterations 2
DILUPBiCG:  Solving for T, Initial residual = 2.6174e-05, Final residual = 5.78252e-10, No Iterations 2
DILUPBiCG:  Solving for T, Initial residual = 2.08935e-06, Final residual = 3.0203e-11, No Iterations 2
 T goes from min(T) [0 0 0 0 0 0 0] -0.101355 to max(T) [0 0 0 0 0 0 0] 0.736529

ExecutionTime = 82.23 s  ClockTime = 1304 s

Time = 5.94
Courant Number mean: 0.345337 max: 0.65143
DILUPBiCG:  Solving for T, Initial residual = 0.0171433, Final residual = 1.82447e-09, No Iterations 3
DILUPBiCG:  Solving for T, Initial residual = 0.000489341, Final residual = 7.74124e-09, No Iterations 2
DILUPBiCG:  Solving for T, Initial residual = 2.62174e-05, Final residual = 5.05127e-10, No Iterations 2
DILUPBiCG:  Solving for T, Initial residual = 2.08108e-06, Final residual = 2.99256e-11, No Iterations 2
 T goes from min(T) [0 0 0 0 0 0 0] -0.101421 to max(T) [0 0 0 0 0 0 0] 0.737481

ExecutionTime = 82.36 s  ClockTime = 1306 s

Time = 5.95
Courant Number mean: 0.344856 max: 0.649735
DILUPBiCG:  Solving for T, Initial residual = 0.017246, Final residual = 1.96244e-09, No Iterations 3
DILUPBiCG:  Solving for T, Initial residual = 0.000491908, Final residual = 7.78315e-09, No Iterations 2
DILUPBiCG:  Solving for T, Initial residual = 2.62876e-05, Final residual = 7.07715e-10, No Iterations 2
DILUPBiCG:  Solving for T, Initial residual = 2.08867e-06, Final residual = 2.97419e-11, No Iterations 2
 T goes from min(T) [0 0 0 0 0 0 0] -0.101156 to max(T) [0 0 0 0 0 0 0] 0.737519

ExecutionTime = 82.5 s  ClockTime = 1307 s

Time = 5.96
Courant Number mean: 0.344308 max: 0.647915
DILUPBiCG:  Solving for T, Initial residual = 0.0173598, Final residual = 2.16351e-09, No Iterations 3
DILUPBiCG:  Solving for T, Initial residual = 0.000492766, Final residual = 7.82661e-09, No Iterations 2
DILUPBiCG:  Solving for T, Initial residual = 2.63166e-05, Final residual = 1.85232e-09, No Iterations 2
DILUPBiCG:  Solving for T, Initial residual = 2.07914e-06, Final residual = 3.00175e-11, No Iterations 2
 T goes from min(T) [0 0 0 0 0 0 0] -0.101104 to max(T) [0 0 0 0 0 0 0] 0.737625

ExecutionTime = 82.64 s  ClockTime = 1309 s

Time = 5.97
Courant Number mean: 0.343689 max: 0.646207
DILUPBiCG:  Solving for T, Initial residual = 0.0174403, Final residual = 2.94665e-09, No Iterations 3
DILUPBiCG:  Solving for T, Initial residual = 0.000494708, Final residual = 7.87352e-09, No Iterations 2
DILUPBiCG:  Solving for T, Initial residual = 2.63728e-05, Final residual = 2.62884e-09, No Iterations 2
DILUPBiCG:  Solving for T, Initial residual = 2.0723e-06, Final residual = 3.12997e-11, No Iterations 2
 T goes from min(T) [0 0 0 0 0 0 0] -0.0998482 to max(T) [0 0 0 0 0 0 0] 0.737158

ExecutionTime = 82.77 s  ClockTime = 1310 s

Time = 5.98
Courant Number mean: 0.343028 max: 0.644344
DILUPBiCG:  Solving for T, Initial residual = 0.0175535, Final residual = 3.1379e-11, No Iterations 4
DILUPBiCG:  Solving for T, Initial residual = 0.00049842, Final residual = 7.93246e-09, No Iterations 2
DILUPBiCG:  Solving for T, Initial residual = 2.63654e-05, Final residual = 1.49035e-09, No Iterations 2
DILUPBiCG:  Solving for T, Initial residual = 2.08224e-06, Final residual = 3.37396e-11, No Iterations 2
 T goes from min(T) [0 0 0 0 0 0 0] -0.100129 to max(T) [0 0 0 0 0 0 0] 0.736209

ExecutionTime = 82.9 s  ClockTime = 1312 s

Time = 5.99
Courant Number mean: 0.342544 max: 0.642612
DILUPBiCG:  Solving for T, Initial residual = 0.0176662, Final residual = 7.27137e-09, No Iterations 3
DILUPBiCG:  Solving for T, Initial residual = 0.000499006, Final residual = 7.95654e-09, No Iterations 2
DILUPBiCG:  Solving for T, Initial residual = 2.64015e-05, Final residual = 8.44757e-10, No Iterations 2
DILUPBiCG:  Solving for T, Initial residual = 2.07727e-06, Final residual = 3.81159e-11, No Iterations 2
 T goes from min(T) [0 0 0 0 0 0 0] -0.0998018 to max(T) [0 0 0 0 0 0 0] 0.735333

ExecutionTime = 83.04 s  ClockTime = 1313 s

Time = 6
Courant Number mean: 0.341991 max: 0.640698
DILUPBiCG:  Solving for T, Initial residual = 0.0177413, Final residual = 6.32743e-09, No Iterations 3
DILUPBiCG:  Solving for T, Initial residual = 0.000500981, Final residual = 7.945e-09, No Iterations 2
DILUPBiCG:  Solving for T, Initial residual = 2.6528e-05, Final residual = 7.2328e-10, No Iterations 2
DILUPBiCG:  Solving for T, Initial residual = 2.07439e-06, Final residual = 9.61036e-09, No Iterations 1
 T goes from min(T) [0 0 0 0 0 0 0] -0.0998615 to max(T) [0 0 0 0 0 0 0] 0.733518

ExecutionTime = 83.18 s  ClockTime = 1315 s

End

