/*---------------------------------------------------------------------------*\
| =========                 |                                                 |
| \\      /  F ield         | OpenFOAM: The Open Source CFD Toolbox           |
|  \\    /   O peration     | Version:  dev                                   |
|   \\  /    A nd           | Web:      www.OpenFOAM.org                      |
|    \\/     M anipulation  |                                                 |
\*---------------------------------------------------------------------------*/
Build  : dev-90f39e0d894d
Exec   : scalarDeformationWithGhosts implicit -case nonOrthogW/120x60/c05_implicit
Date   : May 23 2017
Time   : 20:31:07
Host   : "sws02hw.private.rdg.ac.uk"
PID    : 22882
Case   : nonOrthogW/120x60/c05_implicit
nProcs : 1
sigFpe : Enabling floating point exception trapping (FOAM_SIGFPE).
fileModificationChecking : Monitoring run-time modified files using timeStampMaster (fileModificationSkew 10)
allowSystemOperations : Allowing user-supplied system call operations

// * * * * * * * * * * * * * * * * * * * * * * * * * * * * * * * * * * * * * //
Create time

Create mesh for time = 0

Reading field T

Reading fields phi (compulsory), U and Uf (optional)

Calculating owner stencils
Calculating neighbour stencils

Calculating scalar transport

Courant Number mean: 0.233026 max: 0.482891
Time = 0.005
Courant Number mean: 0.233023 max: 0.483612
DILUPBiCG:  Solving for T, Initial residual = 0.00670683, Final residual = 1.71502e-10, No Iterations 3
DILUPBiCG:  Solving for T, Initial residual = 3.52605e-05, Final residual = 2.33283e-10, No Iterations 2
DILUPBiCG:  Solving for T, Initial residual = 2.71924e-07, Final residual = 9.27888e-10, No Iterations 1
DILUPBiCG:  Solving for T, Initial residual = 5.78001e-09, Final residual = 5.78001e-09, No Iterations 0
 T goes from min(T) [0 0 0 0 0 0 0] 1.1721e-20 to max(T) [0 0 0 0 0 0 0] 0.952951

ExecutionTime = 2.05 s  ClockTime = 9 s

Time = 0.01
Courant Number mean: 0.233013 max: 0.484303
DILUPBiCG:  Solving for T, Initial residual = 0.00670464, Final residual = 1.67765e-10, No Iterations 3
DILUPBiCG:  Solving for T, Initial residual = 3.53032e-05, Final residual = 2.27775e-10, No Iterations 2
DILUPBiCG:  Solving for T, Initial residual = 2.72144e-07, Final residual = 9.20968e-10, No Iterations 1
DILUPBiCG:  Solving for T, Initial residual = 5.77682e-09, Final residual = 5.77682e-09, No Iterations 0
 T goes from min(T) [0 0 0 0 0 0 0] 1.06338e-20 to max(T) [0 0 0 0 0 0 0] 0.953347

ExecutionTime = 2.18 s  ClockTime = 10 s

Time = 0.015
Courant Number mean: 0.232994 max: 0.484961
DILUPBiCG:  Solving for T, Initial residual = 0.00670124, Final residual = 1.6452e-10, No Iterations 3
DILUPBiCG:  Solving for T, Initial residual = 3.53433e-05, Final residual = 2.2222e-10, No Iterations 2
DILUPBiCG:  Solving for T, Initial residual = 2.72957e-07, Final residual = 9.14581e-10, No Iterations 1
DILUPBiCG:  Solving for T, Initial residual = 5.79012e-09, Final residual = 5.79012e-09, No Iterations 0
 T goes from min(T) [0 0 0 0 0 0 0] 1.01466e-20 to max(T) [0 0 0 0 0 0 0] 0.952673

ExecutionTime = 2.32 s  ClockTime = 11 s

Time = 0.02
Courant Number mean: 0.23297 max: 0.485588
DILUPBiCG:  Solving for T, Initial residual = 0.00670244, Final residual = 1.61479e-10, No Iterations 3
DILUPBiCG:  Solving for T, Initial residual = 3.53771e-05, Final residual = 2.16474e-10, No Iterations 2
DILUPBiCG:  Solving for T, Initial residual = 2.74321e-07, Final residual = 9.09217e-10, No Iterations 1
DILUPBiCG:  Solving for T, Initial residual = 5.82896e-09, Final residual = 5.82896e-09, No Iterations 0
 T goes from min(T) [0 0 0 0 0 0 0] 1.02704e-20 to max(T) [0 0 0 0 0 0 0] 0.951134

ExecutionTime = 2.44 s  ClockTime = 12 s

Time = 0.025
Courant Number mean: 0.23294 max: 0.486183
DILUPBiCG:  Solving for T, Initial residual = 0.00670648, Final residual = 1.58421e-10, No Iterations 3
DILUPBiCG:  Solving for T, Initial residual = 3.54238e-05, Final residual = 2.13031e-10, No Iterations 2
DILUPBiCG:  Solving for T, Initial residual = 2.76069e-07, Final residual = 9.04416e-10, No Iterations 1
DILUPBiCG:  Solving for T, Initial residual = 5.89358e-09, Final residual = 5.89358e-09, No Iterations 0
 T goes from min(T) [0 0 0 0 0 0 0] 1.10404e-20 to max(T) [0 0 0 0 0 0 0] 0.952437

ExecutionTime = 2.57 s  ClockTime = 13 s

Time = 0.03
Courant Number mean: 0.232902 max: 0.486745
DILUPBiCG:  Solving for T, Initial residual = 0.00670911, Final residual = 1.55084e-10, No Iterations 3
DILUPBiCG:  Solving for T, Initial residual = 3.54875e-05, Final residual = 2.17239e-10, No Iterations 2
DILUPBiCG:  Solving for T, Initial residual = 2.77939e-07, Final residual = 8.99501e-10, No Iterations 1
DILUPBiCG:  Solving for T, Initial residual = 5.98958e-09, Final residual = 5.98958e-09, No Iterations 0
 T goes from min(T) [0 0 0 0 0 0 0] 1.25194e-20 to max(T) [0 0 0 0 0 0 0] 0.953264

ExecutionTime = 2.7 s  ClockTime = 14 s

Time = 0.035
Courant Number mean: 0.232857 max: 0.487276
DILUPBiCG:  Solving for T, Initial residual = 0.00670939, Final residual = 1.51413e-10, No Iterations 3
DILUPBiCG:  Solving for T, Initial residual = 3.55755e-05, Final residual = 2.22791e-10, No Iterations 2
DILUPBiCG:  Solving for T, Initial residual = 2.80162e-07, Final residual = 8.94977e-10, No Iterations 1
DILUPBiCG:  Solving for T, Initial residual = 6.10636e-09, Final residual = 6.10636e-09, No Iterations 0
 T goes from min(T) [0 0 0 0 0 0 0] 1.48015e-20 to max(T) [0 0 0 0 0 0 0] 0.953097

ExecutionTime = 2.83 s  ClockTime = 15 s

Time = 0.04
Courant Number mean: 0.232806 max: 0.487774
DILUPBiCG:  Solving for T, Initial residual = 0.00671465, Final residual = 1.47456e-10, No Iterations 3
DILUPBiCG:  Solving for T, Initial residual = 3.56634e-05, Final residual = 2.29783e-10, No Iterations 2
DILUPBiCG:  Solving for T, Initial residual = 2.82553e-07, Final residual = 8.90872e-10, No Iterations 1
DILUPBiCG:  Solving for T, Initial residual = 6.24679e-09, Final residual = 6.24679e-09, No Iterations 0
 T goes from min(T) [0 0 0 0 0 0 0] 1.41086e-20 to max(T) [0 0 0 0 0 0 0] 0.951975

ExecutionTime = 2.96 s  ClockTime = 17 s

Time = 0.045
Courant Number mean: 0.232749 max: 0.488366
DILUPBiCG:  Solving for T, Initial residual = 0.00671855, Final residual = 1.432e-10, No Iterations 3
DILUPBiCG:  Solving for T, Initial residual = 3.57599e-05, Final residual = 2.38038e-10, No Iterations 2
DILUPBiCG:  Solving for T, Initial residual = 2.85263e-07, Final residual = 8.87086e-10, No Iterations 1
DILUPBiCG:  Solving for T, Initial residual = 6.41645e-09, Final residual = 6.41645e-09, No Iterations 0
 T goes from min(T) [0 0 0 0 0 0 0] 1.31642e-20 to max(T) [0 0 0 0 0 0 0] 0.952074

ExecutionTime = 3.09 s  ClockTime = 18 s

Time = 0.05
Courant Number mean: 0.232683 max: 0.48898
DILUPBiCG:  Solving for T, Initial residual = 0.00671928, Final residual = 1.39735e-10, No Iterations 3
DILUPBiCG:  Solving for T, Initial residual = 3.58549e-05, Final residual = 2.47664e-10, No Iterations 2
DILUPBiCG:  Solving for T, Initial residual = 2.88781e-07, Final residual = 8.85383e-10, No Iterations 1
DILUPBiCG:  Solving for T, Initial residual = 6.61103e-09, Final residual = 6.61103e-09, No Iterations 0
 T goes from min(T) [0 0 0 0 0 0 0] 1.29445e-20 to max(T) [0 0 0 0 0 0 0] 0.953065

ExecutionTime = 3.22 s  ClockTime = 19 s

Time = 0.055
Courant Number mean: 0.232611 max: 0.489561
DILUPBiCG:  Solving for T, Initial residual = 0.00671971, Final residual = 1.36281e-10, No Iterations 3
DILUPBiCG:  Solving for T, Initial residual = 3.59573e-05, Final residual = 2.5889e-10, No Iterations 2
DILUPBiCG:  Solving for T, Initial residual = 2.93105e-07, Final residual = 8.85216e-10, No Iterations 1
DILUPBiCG:  Solving for T, Initial residual = 6.84201e-09, Final residual = 6.84201e-09, No Iterations 0
 T goes from min(T) [0 0 0 0 0 0 0] 1.34793e-20 to max(T) [0 0 0 0 0 0 0] 0.952918

ExecutionTime = 3.34 s  ClockTime = 21 s

Time = 0.06
Courant Number mean: 0.232532 max: 0.490175
DILUPBiCG:  Solving for T, Initial residual = 0.00672542, Final residual = 1.32853e-10, No Iterations 3
DILUPBiCG:  Solving for T, Initial residual = 3.60744e-05, Final residual = 2.71624e-10, No Iterations 2
DILUPBiCG:  Solving for T, Initial residual = 2.97589e-07, Final residual = 8.85691e-10, No Iterations 1
DILUPBiCG:  Solving for T, Initial residual = 7.10376e-09, Final residual = 7.10376e-09, No Iterations 0
 T goes from min(T) [0 0 0 0 0 0 0] 1.48184e-20 to max(T) [0 0 0 0 0 0 0] 0.951597

ExecutionTime = 3.47 s  ClockTime = 23 s

Time = 0.065
Courant Number mean: 0.232448 max: 0.490822
DILUPBiCG:  Solving for T, Initial residual = 0.00673228, Final residual = 1.29479e-10, No Iterations 3
DILUPBiCG:  Solving for T, Initial residual = 3.62002e-05, Final residual = 2.85701e-10, No Iterations 2
DILUPBiCG:  Solving for T, Initial residual = 3.02324e-07, Final residual = 8.86164e-10, No Iterations 1
DILUPBiCG:  Solving for T, Initial residual = 7.38793e-09, Final residual = 7.38793e-09, No Iterations 0
 T goes from min(T) [0 0 0 0 0 0 0] 1.70418e-20 to max(T) [0 0 0 0 0 0 0] 0.951861

ExecutionTime = 3.6 s  ClockTime = 24 s

Time = 0.07
Courant Number mean: 0.232357 max: 0.491436
DILUPBiCG:  Solving for T, Initial residual = 0.00673588, Final residual = 1.26245e-10, No Iterations 3
DILUPBiCG:  Solving for T, Initial residual = 3.6338e-05, Final residual = 3.01159e-10, No Iterations 2
DILUPBiCG:  Solving for T, Initial residual = 3.07281e-07, Final residual = 8.86613e-10, No Iterations 1
DILUPBiCG:  Solving for T, Initial residual = 7.68918e-09, Final residual = 7.68918e-09, No Iterations 0
 T goes from min(T) [0 0 0 0 0 0 0] 1.83588e-20 to max(T) [0 0 0 0 0 0 0] 0.952936

ExecutionTime = 3.74 s  ClockTime = 26 s

Time = 0.075
Courant Number mean: 0.232258 max: 0.492019
DILUPBiCG:  Solving for T, Initial residual = 0.00673637, Final residual = 1.23153e-10, No Iterations 3
DILUPBiCG:  Solving for T, Initial residual = 3.64731e-05, Final residual = 3.1792e-10, No Iterations 2
DILUPBiCG:  Solving for T, Initial residual = 3.12448e-07, Final residual = 8.86974e-10, No Iterations 1
DILUPBiCG:  Solving for T, Initial residual = 8.02366e-09, Final residual = 8.02366e-09, No Iterations 0
 T goes from min(T) [0 0 0 0 0 0 0] 1.66558e-20 to max(T) [0 0 0 0 0 0 0] 0.95293

ExecutionTime = 3.88 s  ClockTime = 29 s

Time = 0.08
Courant Number mean: 0.232153 max: 0.492569
DILUPBiCG:  Solving for T, Initial residual = 0.00674035, Final residual = 1.20279e-10, No Iterations 3
DILUPBiCG:  Solving for T, Initial residual = 3.66148e-05, Final residual = 3.36335e-10, No Iterations 2
DILUPBiCG:  Solving for T, Initial residual = 3.17878e-07, Final residual = 8.88016e-10, No Iterations 1
DILUPBiCG:  Solving for T, Initial residual = 8.39311e-09, Final residual = 8.39311e-09, No Iterations 0
 T goes from min(T) [0 0 0 0 0 0 0] 1.56432e-20 to max(T) [0 0 0 0 0 0 0] 0.951828

ExecutionTime = 4.04 s  ClockTime = 31 s

Time = 0.085
Courant Number mean: 0.23204 max: 0.493086
DILUPBiCG:  Solving for T, Initial residual = 0.0067467, Final residual = 1.17574e-10, No Iterations 3
DILUPBiCG:  Solving for T, Initial residual = 3.67845e-05, Final residual = 3.5579e-10, No Iterations 2
DILUPBiCG:  Solving for T, Initial residual = 3.2397e-07, Final residual = 8.89549e-10, No Iterations 1
DILUPBiCG:  Solving for T, Initial residual = 8.78909e-09, Final residual = 8.78909e-09, No Iterations 0
 T goes from min(T) [0 0 0 0 0 0 0] 1.53723e-20 to max(T) [0 0 0 0 0 0 0] 0.951609

ExecutionTime = 4.19 s  ClockTime = 34 s

Time = 0.09
Courant Number mean: 0.231921 max: 0.493694
DILUPBiCG:  Solving for T, Initial residual = 0.00675206, Final residual = 1.15004e-10, No Iterations 3
DILUPBiCG:  Solving for T, Initial residual = 3.69571e-05, Final residual = 3.76445e-10, No Iterations 2
DILUPBiCG:  Solving for T, Initial residual = 3.30441e-07, Final residual = 8.93198e-10, No Iterations 1
DILUPBiCG:  Solving for T, Initial residual = 9.22124e-09, Final residual = 9.22124e-09, No Iterations 0
 T goes from min(T) [0 0 0 0 0 0 0] 1.61967e-20 to max(T) [0 0 0 0 0 0 0] 0.952649

ExecutionTime = 4.33 s  ClockTime = 37 s

Time = 0.095
Courant Number mean: 0.231795 max: 0.494332
DILUPBiCG:  Solving for T, Initial residual = 0.00675499, Final residual = 1.12574e-10, No Iterations 3
DILUPBiCG:  Solving for T, Initial residual = 3.71428e-05, Final residual = 3.98023e-10, No Iterations 2
DILUPBiCG:  Solving for T, Initial residual = 3.37502e-07, Final residual = 8.97409e-10, No Iterations 1
DILUPBiCG:  Solving for T, Initial residual = 9.68764e-09, Final residual = 9.68764e-09, No Iterations 0
 T goes from min(T) [0 0 0 0 0 0 0] 1.90241e-20 to max(T) [0 0 0 0 0 0 0] 0.952832

ExecutionTime = 4.48 s  ClockTime = 40 s

Time = 0.1
Courant Number mean: 0.231662 max: 0.494937
DILUPBiCG:  Solving for T, Initial residual = 0.00675852, Final residual = 1.10353e-10, No Iterations 3
DILUPBiCG:  Solving for T, Initial residual = 3.73384e-05, Final residual = 4.20891e-10, No Iterations 2
DILUPBiCG:  Solving for T, Initial residual = 3.45037e-07, Final residual = 9.02427e-10, No Iterations 1
DILUPBiCG:  Solving for T, Initial residual = 1.01911e-08, Final residual = 2.59522e-11, No Iterations 1
 T goes from min(T) [0 0 0 0 0 0 0] 2.25197e-20 to max(T) [0 0 0 0 0 0 0] 0.952589

ExecutionTime = 4.63 s  ClockTime = 43 s

Time = 0.105
Courant Number mean: 0.231522 max: 0.49551
DILUPBiCG:  Solving for T, Initial residual = 0.00676482, Final residual = 1.08275e-10, No Iterations 3
DILUPBiCG:  Solving for T, Initial residual = 3.75303e-05, Final residual = 4.44747e-10, No Iterations 2
DILUPBiCG:  Solving for T, Initial residual = 3.52664e-07, Final residual = 9.07815e-10, No Iterations 1
DILUPBiCG:  Solving for T, Initial residual = 1.07283e-08, Final residual = 2.68093e-11, No Iterations 1
 T goes from min(T) [0 0 0 0 0 0 0] 1.93852e-20 to max(T) [0 0 0 0 0 0 0] 0.951082

ExecutionTime = 4.77 s  ClockTime = 46 s

Time = 0.11
Courant Number mean: 0.231377 max: 0.49605
DILUPBiCG:  Solving for T, Initial residual = 0.00676838, Final residual = 1.06309e-10, No Iterations 3
DILUPBiCG:  Solving for T, Initial residual = 3.77498e-05, Final residual = 4.69339e-10, No Iterations 2
DILUPBiCG:  Solving for T, Initial residual = 3.60553e-07, Final residual = 9.1301e-10, No Iterations 1
DILUPBiCG:  Solving for T, Initial residual = 1.13007e-08, Final residual = 2.77869e-11, No Iterations 1
 T goes from min(T) [0 0 0 0 0 0 0] 1.86165e-20 to max(T) [0 0 0 0 0 0 0] 0.951587

ExecutionTime = 4.91 s  ClockTime = 49 s

Time = 0.115
Courant Number mean: 0.231224 max: 0.496556
DILUPBiCG:  Solving for T, Initial residual = 0.00677306, Final residual = 1.04434e-10, No Iterations 3
DILUPBiCG:  Solving for T, Initial residual = 3.79882e-05, Final residual = 4.9483e-10, No Iterations 2
DILUPBiCG:  Solving for T, Initial residual = 3.68884e-07, Final residual = 9.20308e-10, No Iterations 1
DILUPBiCG:  Solving for T, Initial residual = 1.19148e-08, Final residual = 2.88608e-11, No Iterations 1
 T goes from min(T) [0 0 0 0 0 0 0] 2.24295e-20 to max(T) [0 0 0 0 0 0 0] 0.953083

ExecutionTime = 5.07 s  ClockTime = 52 s

Time = 0.12
Courant Number mean: 0.231064 max: 0.49703
DILUPBiCG:  Solving for T, Initial residual = 0.00677664, Final residual = 1.02695e-10, No Iterations 3
DILUPBiCG:  Solving for T, Initial residual = 3.8221e-05, Final residual = 5.21115e-10, No Iterations 2
DILUPBiCG:  Solving for T, Initial residual = 3.78079e-07, Final residual = 9.28424e-10, No Iterations 1
DILUPBiCG:  Solving for T, Initial residual = 1.2584e-08, Final residual = 3.00156e-11, No Iterations 1
 T goes from min(T) [0 0 0 0 0 0 0] 2.78881e-20 to max(T) [0 0 0 0 0 0 0] 0.953314

ExecutionTime = 5.2 s  ClockTime = 55 s

Time = 0.125
Courant Number mean: 0.230897 max: 0.49747
DILUPBiCG:  Solving for T, Initial residual = 0.00678157, Final residual = 1.01049e-10, No Iterations 3
DILUPBiCG:  Solving for T, Initial residual = 3.8449e-05, Final residual = 5.48411e-10, No Iterations 2
DILUPBiCG:  Solving for T, Initial residual = 3.88034e-07, Final residual = 9.3657e-10, No Iterations 1
DILUPBiCG:  Solving for T, Initial residual = 1.32886e-08, Final residual = 3.1236e-11, No Iterations 1
 T goes from min(T) [0 0 0 0 0 0 0] -1.96669e-17 to max(T) [0 0 0 0 0 0 0] 0.952348

ExecutionTime = 5.34 s  ClockTime = 58 s

Time = 0.13
Courant Number mean: 0.230724 max: 0.497877
DILUPBiCG:  Solving for T, Initial residual = 0.00678712, Final residual = 9.94436e-11, No Iterations 3
DILUPBiCG:  Solving for T, Initial residual = 3.86725e-05, Final residual = 5.76451e-10, No Iterations 2
DILUPBiCG:  Solving for T, Initial residual = 3.98672e-07, Final residual = 9.4494e-10, No Iterations 1
DILUPBiCG:  Solving for T, Initial residual = 1.40302e-08, Final residual = 3.25054e-11, No Iterations 1
 T goes from min(T) [0 0 0 0 0 0 0] -8.32446e-17 to max(T) [0 0 0 0 0 0 0] 0.953328

ExecutionTime = 5.48 s  ClockTime = 61 s

Time = 0.135
Courant Number mean: 0.230543 max: 0.49825
DILUPBiCG:  Solving for T, Initial residual = 0.00679171, Final residual = 9.78889e-11, No Iterations 3
DILUPBiCG:  Solving for T, Initial residual = 3.89114e-05, Final residual = 6.05912e-10, No Iterations 2
DILUPBiCG:  Solving for T, Initial residual = 4.09386e-07, Final residual = 9.53228e-10, No Iterations 1
DILUPBiCG:  Solving for T, Initial residual = 1.47985e-08, Final residual = 3.38347e-11, No Iterations 1
 T goes from min(T) [0 0 0 0 0 0 0] -8.83496e-16 to max(T) [0 0 0 0 0 0 0] 0.953487

ExecutionTime = 5.61 s  ClockTime = 64 s

Time = 0.14
Courant Number mean: 0.230357 max: 0.498825
DILUPBiCG:  Solving for T, Initial residual = 0.00679622, Final residual = 9.64672e-11, No Iterations 3
DILUPBiCG:  Solving for T, Initial residual = 3.92049e-05, Final residual = 6.36279e-10, No Iterations 2
DILUPBiCG:  Solving for T, Initial residual = 4.20423e-07, Final residual = 9.61105e-10, No Iterations 1
DILUPBiCG:  Solving for T, Initial residual = 1.55862e-08, Final residual = 3.51927e-11, No Iterations 1
 T goes from min(T) [0 0 0 0 0 0 0] -3.49841e-15 to max(T) [0 0 0 0 0 0 0] 0.952861

ExecutionTime = 5.75 s  ClockTime = 67 s

Time = 0.145
Courant Number mean: 0.230166 max: 0.49945
DILUPBiCG:  Solving for T, Initial residual = 0.00679977, Final residual = 9.51448e-11, No Iterations 3
DILUPBiCG:  Solving for T, Initial residual = 3.95066e-05, Final residual = 6.67568e-10, No Iterations 2
DILUPBiCG:  Solving for T, Initial residual = 4.31814e-07, Final residual = 9.68987e-10, No Iterations 1
DILUPBiCG:  Solving for T, Initial residual = 1.64172e-08, Final residual = 3.65616e-11, No Iterations 1
 T goes from min(T) [0 0 0 0 0 0 0] -5.95121e-15 to max(T) [0 0 0 0 0 0 0] 0.952628

ExecutionTime = 5.89 s  ClockTime = 70 s

Time = 0.15
Courant Number mean: 0.229968 max: 0.500042
DILUPBiCG:  Solving for T, Initial residual = 0.00680429, Final residual = 9.38661e-11, No Iterations 3
DILUPBiCG:  Solving for T, Initial residual = 3.97922e-05, Final residual = 6.99296e-10, No Iterations 2
DILUPBiCG:  Solving for T, Initial residual = 4.43424e-07, Final residual = 9.76813e-10, No Iterations 1
DILUPBiCG:  Solving for T, Initial residual = 1.72726e-08, Final residual = 3.80314e-11, No Iterations 1
 T goes from min(T) [0 0 0 0 0 0 0] -8.93701e-15 to max(T) [0 0 0 0 0 0 0] 0.951771

ExecutionTime = 6.03 s  ClockTime = 73 s

Time = 0.155
Courant Number mean: 0.229761 max: 0.500602
DILUPBiCG:  Solving for T, Initial residual = 0.00681063, Final residual = 9.26266e-11, No Iterations 3
DILUPBiCG:  Solving for T, Initial residual = 4.00662e-05, Final residual = 7.32267e-10, No Iterations 2
DILUPBiCG:  Solving for T, Initial residual = 4.55248e-07, Final residual = 9.85219e-10, No Iterations 1
DILUPBiCG:  Solving for T, Initial residual = 1.81783e-08, Final residual = 3.95793e-11, No Iterations 1
 T goes from min(T) [0 0 0 0 0 0 0] -1.26293e-14 to max(T) [0 0 0 0 0 0 0] 0.949554

ExecutionTime = 6.16 s  ClockTime = 75 s

Time = 0.16
Courant Number mean: 0.229548 max: 0.501127
DILUPBiCG:  Solving for T, Initial residual = 0.00681664, Final residual = 9.14767e-11, No Iterations 3
DILUPBiCG:  Solving for T, Initial residual = 4.03296e-05, Final residual = 7.666e-10, No Iterations 2
DILUPBiCG:  Solving for T, Initial residual = 4.67298e-07, Final residual = 9.92894e-10, No Iterations 1
DILUPBiCG:  Solving for T, Initial residual = 1.91408e-08, Final residual = 4.12096e-11, No Iterations 1
 T goes from min(T) [0 0 0 0 0 0 0] -2.46043e-14 to max(T) [0 0 0 0 0 0 0] 0.951748

ExecutionTime = 6.29 s  ClockTime = 78 s

Time = 0.165
Courant Number mean: 0.229329 max: 0.50162
DILUPBiCG:  Solving for T, Initial residual = 0.00682227, Final residual = 9.04101e-11, No Iterations 3
DILUPBiCG:  Solving for T, Initial residual = 4.06289e-05, Final residual = 8.02876e-10, No Iterations 2
DILUPBiCG:  Solving for T, Initial residual = 4.79819e-07, Final residual = 1.00038e-09, No Iterations 1
DILUPBiCG:  Solving for T, Initial residual = 2.01574e-08, Final residual = 4.2848e-11, No Iterations 1
 T goes from min(T) [0 0 0 0 0 0 0] -5.43098e-14 to max(T) [0 0 0 0 0 0 0] 0.953251

ExecutionTime = 6.43 s  ClockTime = 81 s

Time = 0.17
Courant Number mean: 0.22911 max: 0.502079
DILUPBiCG:  Solving for T, Initial residual = 0.00682407, Final residual = 8.94056e-11, No Iterations 3
DILUPBiCG:  Solving for T, Initial residual = 4.09488e-05, Final residual = 8.41042e-10, No Iterations 2
DILUPBiCG:  Solving for T, Initial residual = 4.93014e-07, Final residual = 1.00812e-09, No Iterations 1
DILUPBiCG:  Solving for T, Initial residual = 2.11929e-08, Final residual = 4.44705e-11, No Iterations 1
 T goes from min(T) [0 0 0 0 0 0 0] -1.58709e-13 to max(T) [0 0 0 0 0 0 0] 0.953473

ExecutionTime = 6.56 s  ClockTime = 84 s

Time = 0.175
Courant Number mean: 0.228888 max: 0.502505
DILUPBiCG:  Solving for T, Initial residual = 0.00682791, Final residual = 8.84535e-11, No Iterations 3
DILUPBiCG:  Solving for T, Initial residual = 4.12811e-05, Final residual = 8.81605e-10, No Iterations 2
DILUPBiCG:  Solving for T, Initial residual = 5.06652e-07, Final residual = 1.01545e-09, No Iterations 1
DILUPBiCG:  Solving for T, Initial residual = 2.22288e-08, Final residual = 4.6182e-11, No Iterations 1
 T goes from min(T) [0 0 0 0 0 0 0] -1.74297e-13 to max(T) [0 0 0 0 0 0 0] 0.953652

ExecutionTime = 6.7 s  ClockTime = 87 s

Time = 0.18
Courant Number mean: 0.228661 max: 0.502898
DILUPBiCG:  Solving for T, Initial residual = 0.00683457, Final residual = 8.75852e-11, No Iterations 3
DILUPBiCG:  Solving for T, Initial residual = 4.16127e-05, Final residual = 9.24603e-10, No Iterations 2
DILUPBiCG:  Solving for T, Initial residual = 5.21025e-07, Final residual = 1.02325e-09, No Iterations 1
DILUPBiCG:  Solving for T, Initial residual = 2.32639e-08, Final residual = 4.78737e-11, No Iterations 1
 T goes from min(T) [0 0 0 0 0 0 0] -2.84762e-13 to max(T) [0 0 0 0 0 0 0] 0.953123

ExecutionTime = 6.84 s  ClockTime = 90 s

Time = 0.185
Courant Number mean: 0.228427 max: 0.503257
DILUPBiCG:  Solving for T, Initial residual = 0.00684261, Final residual = 8.68293e-11, No Iterations 3
DILUPBiCG:  Solving for T, Initial residual = 4.19308e-05, Final residual = 9.71141e-10, No Iterations 2
DILUPBiCG:  Solving for T, Initial residual = 5.35437e-07, Final residual = 1.03224e-09, No Iterations 1
DILUPBiCG:  Solving for T, Initial residual = 2.42977e-08, Final residual = 4.95258e-11, No Iterations 1
 T goes from min(T) [0 0 0 0 0 0 0] -4.09192e-13 to max(T) [0 0 0 0 0 0 0] 0.951923

ExecutionTime = 6.97 s  ClockTime = 93 s

Time = 0.19
Courant Number mean: 0.22819 max: 0.503582
DILUPBiCG:  Solving for T, Initial residual = 0.00684661, Final residual = 8.61311e-11, No Iterations 3
DILUPBiCG:  Solving for T, Initial residual = 4.22808e-05, Final residual = 1.02206e-09, No Iterations 2
DILUPBiCG:  Solving for T, Initial residual = 5.50225e-07, Final residual = 1.04126e-09, No Iterations 1
DILUPBiCG:  Solving for T, Initial residual = 2.5322e-08, Final residual = 5.10955e-11, No Iterations 1
 T goes from min(T) [0 0 0 0 0 0 0] -4.24288e-13 to max(T) [0 0 0 0 0 0 0] 0.951277

ExecutionTime = 7.1 s  ClockTime = 95 s

Time = 0.195
Courant Number mean: 0.227948 max: 0.503874
DILUPBiCG:  Solving for T, Initial residual = 0.0068496, Final residual = 8.54889e-11, No Iterations 3
DILUPBiCG:  Solving for T, Initial residual = 4.26568e-05, Final residual = 1.0773e-09, No Iterations 2
DILUPBiCG:  Solving for T, Initial residual = 5.65345e-07, Final residual = 1.05209e-09, No Iterations 1
DILUPBiCG:  Solving for T, Initial residual = 2.6334e-08, Final residual = 5.28133e-11, No Iterations 1
 T goes from min(T) [0 0 0 0 0 0 0] -6.03584e-13 to max(T) [0 0 0 0 0 0 0] 0.952364

ExecutionTime = 7.23 s  ClockTime = 98 s

Time = 0.2
Courant Number mean: 0.2277 max: 0.504261
DILUPBiCG:  Solving for T, Initial residual = 0.00685159, Final residual = 8.49889e-11, No Iterations 3
DILUPBiCG:  Solving for T, Initial residual = 4.30251e-05, Final residual = 1.13855e-09, No Iterations 2
DILUPBiCG:  Solving for T, Initial residual = 5.80571e-07, Final residual = 1.06394e-09, No Iterations 1
DILUPBiCG:  Solving for T, Initial residual = 2.7444e-08, Final residual = 5.46204e-11, No Iterations 1
 T goes from min(T) [0 0 0 0 0 0 0] -6.79532e-13 to max(T) [0 0 0 0 0 0 0] 0.952056

ExecutionTime = 7.36 s  ClockTime = 101 s

Time = 0.205
Courant Number mean: 0.227446 max: 0.504802
DILUPBiCG:  Solving for T, Initial residual = 0.00685992, Final residual = 8.45976e-11, No Iterations 3
DILUPBiCG:  Solving for T, Initial residual = 4.34013e-05, Final residual = 1.20745e-09, No Iterations 2
DILUPBiCG:  Solving for T, Initial residual = 5.95673e-07, Final residual = 1.07517e-09, No Iterations 1
DILUPBiCG:  Solving for T, Initial residual = 2.85968e-08, Final residual = 5.65274e-11, No Iterations 1
 T goes from min(T) [0 0 0 0 0 0 0] -8.17313e-13 to max(T) [0 0 0 0 0 0 0] 0.950377

ExecutionTime = 7.49 s  ClockTime = 103 s

Time = 0.21
Courant Number mean: 0.227187 max: 0.505309
DILUPBiCG:  Solving for T, Initial residual = 0.00686635, Final residual = 8.43026e-11, No Iterations 3
DILUPBiCG:  Solving for T, Initial residual = 4.37841e-05, Final residual = 1.28541e-09, No Iterations 2
DILUPBiCG:  Solving for T, Initial residual = 6.11451e-07, Final residual = 1.08647e-09, No Iterations 1
DILUPBiCG:  Solving for T, Initial residual = 2.97593e-08, Final residual = 5.82803e-11, No Iterations 1
 T goes from min(T) [0 0 0 0 0 0 0] -1.01141e-12 to max(T) [0 0 0 0 0 0 0] 0.951348

ExecutionTime = 7.63 s  ClockTime = 106 s

Time = 0.215
Courant Number mean: 0.22693 max: 0.505783
DILUPBiCG:  Solving for T, Initial residual = 0.00687202, Final residual = 8.40645e-11, No Iterations 3
DILUPBiCG:  Solving for T, Initial residual = 4.41434e-05, Final residual = 1.37546e-09, No Iterations 2
DILUPBiCG:  Solving for T, Initial residual = 6.27394e-07, Final residual = 1.0999e-09, No Iterations 1
DILUPBiCG:  Solving for T, Initial residual = 3.09066e-08, Final residual = 5.99856e-11, No Iterations 1
 T goes from min(T) [0 0 0 0 0 0 0] -1.0028e-12 to max(T) [0 0 0 0 0 0 0] 0.951649

ExecutionTime = 7.76 s  ClockTime = 109 s

Time = 0.22
Courant Number mean: 0.226672 max: 0.506224
DILUPBiCG:  Solving for T, Initial residual = 0.00687523, Final residual = 8.39315e-11, No Iterations 3
DILUPBiCG:  Solving for T, Initial residual = 4.45085e-05, Final residual = 1.47915e-09, No Iterations 2
DILUPBiCG:  Solving for T, Initial residual = 6.43586e-07, Final residual = 1.11534e-09, No Iterations 1
DILUPBiCG:  Solving for T, Initial residual = 3.20954e-08, Final residual = 6.16393e-11, No Iterations 1
 T goes from min(T) [0 0 0 0 0 0 0] -1.14802e-12 to max(T) [0 0 0 0 0 0 0] 0.953156

ExecutionTime = 7.89 s  ClockTime = 112 s

Time = 0.225
Courant Number mean: 0.226411 max: 0.506632
DILUPBiCG:  Solving for T, Initial residual = 0.00687905, Final residual = 8.40021e-11, No Iterations 3
DILUPBiCG:  Solving for T, Initial residual = 4.49051e-05, Final residual = 1.59849e-09, No Iterations 2
DILUPBiCG:  Solving for T, Initial residual = 6.60297e-07, Final residual = 1.1305e-09, No Iterations 1
DILUPBiCG:  Solving for T, Initial residual = 3.32477e-08, Final residual = 6.31752e-11, No Iterations 1
 T goes from min(T) [0 0 0 0 0 0 0] -1.70072e-12 to max(T) [0 0 0 0 0 0 0] 0.953299

ExecutionTime = 8.02 s  ClockTime = 115 s

Time = 0.23
Courant Number mean: 0.226145 max: 0.507005
DILUPBiCG:  Solving for T, Initial residual = 0.00688397, Final residual = 8.43274e-11, No Iterations 3
DILUPBiCG:  Solving for T, Initial residual = 4.5328e-05, Final residual = 1.73729e-09, No Iterations 2
DILUPBiCG:  Solving for T, Initial residual = 6.77108e-07, Final residual = 1.14658e-09, No Iterations 1
DILUPBiCG:  Solving for T, Initial residual = 3.43667e-08, Final residual = 6.46334e-11, No Iterations 1
 T goes from min(T) [0 0 0 0 0 0 0] -2.22341e-12 to max(T) [0 0 0 0 0 0 0] 0.952861

ExecutionTime = 8.16 s  ClockTime = 118 s

Time = 0.235
Courant Number mean: 0.225874 max: 0.507346
DILUPBiCG:  Solving for T, Initial residual = 0.0068913, Final residual = 8.48639e-11, No Iterations 3
DILUPBiCG:  Solving for T, Initial residual = 4.57827e-05, Final residual = 1.89775e-09, No Iterations 2
DILUPBiCG:  Solving for T, Initial residual = 6.93577e-07, Final residual = 1.16324e-09, No Iterations 1
DILUPBiCG:  Solving for T, Initial residual = 3.54599e-08, Final residual = 6.60484e-11, No Iterations 1
 T goes from min(T) [0 0 0 0 0 0 0] -2.23488e-12 to max(T) [0 0 0 0 0 0 0] 0.953118

ExecutionTime = 8.3 s  ClockTime = 120 s

Time = 0.24
Courant Number mean: 0.225598 max: 0.507652
DILUPBiCG:  Solving for T, Initial residual = 0.00689696, Final residual = 8.561e-11, No Iterations 3
DILUPBiCG:  Solving for T, Initial residual = 4.62196e-05, Final residual = 2.08567e-09, No Iterations 2
DILUPBiCG:  Solving for T, Initial residual = 7.09822e-07, Final residual = 1.17896e-09, No Iterations 1
DILUPBiCG:  Solving for T, Initial residual = 3.64783e-08, Final residual = 6.74987e-11, No Iterations 1
 T goes from min(T) [0 0 0 0 0 0 0] -2.54589e-12 to max(T) [0 0 0 0 0 0 0] 0.952752

ExecutionTime = 8.44 s  ClockTime = 123 s

Time = 0.245
Courant Number mean: 0.225317 max: 0.507925
DILUPBiCG:  Solving for T, Initial residual = 0.00690251, Final residual = 8.65187e-11, No Iterations 3
DILUPBiCG:  Solving for T, Initial residual = 4.66489e-05, Final residual = 2.30532e-09, No Iterations 2
DILUPBiCG:  Solving for T, Initial residual = 7.26853e-07, Final residual = 1.19672e-09, No Iterations 1
DILUPBiCG:  Solving for T, Initial residual = 3.75592e-08, Final residual = 6.90083e-11, No Iterations 1
 T goes from min(T) [0 0 0 0 0 0 0] -3.2561e-12 to max(T) [0 0 0 0 0 0 0] 0.951797

ExecutionTime = 8.6 s  ClockTime = 127 s

Time = 0.25
Courant Number mean: 0.225031 max: 0.508317
DILUPBiCG:  Solving for T, Initial residual = 0.00690898, Final residual = 8.76559e-11, No Iterations 3
DILUPBiCG:  Solving for T, Initial residual = 4.70575e-05, Final residual = 2.5593e-09, No Iterations 2
DILUPBiCG:  Solving for T, Initial residual = 7.43664e-07, Final residual = 1.2194e-09, No Iterations 1
DILUPBiCG:  Solving for T, Initial residual = 3.86286e-08, Final residual = 7.0522e-11, No Iterations 1
 T goes from min(T) [0 0 0 0 0 0 0] -3.40757e-12 to max(T) [0 0 0 0 0 0 0] 0.951573

ExecutionTime = 8.74 s  ClockTime = 130 s

Time = 0.255
Courant Number mean: 0.224743 max: 0.508722
DILUPBiCG:  Solving for T, Initial residual = 0.00691131, Final residual = 8.91062e-11, No Iterations 3
DILUPBiCG:  Solving for T, Initial residual = 4.75097e-05, Final residual = 2.86054e-09, No Iterations 2
DILUPBiCG:  Solving for T, Initial residual = 7.61298e-07, Final residual = 1.24683e-09, No Iterations 1
DILUPBiCG:  Solving for T, Initial residual = 3.96438e-08, Final residual = 7.24544e-11, No Iterations 1
 T goes from min(T) [0 0 0 0 0 0 0] -3.01408e-12 to max(T) [0 0 0 0 0 0 0] 0.952195

ExecutionTime = 8.9 s  ClockTime = 133 s

Time = 0.26
Courant Number mean: 0.224457 max: 0.509093
DILUPBiCG:  Solving for T, Initial residual = 0.00691388, Final residual = 9.08121e-11, No Iterations 3
DILUPBiCG:  Solving for T, Initial residual = 4.79803e-05, Final residual = 3.20674e-09, No Iterations 2
DILUPBiCG:  Solving for T, Initial residual = 7.79379e-07, Final residual = 1.27498e-09, No Iterations 1
DILUPBiCG:  Solving for T, Initial residual = 4.07198e-08, Final residual = 7.45195e-11, No Iterations 1
 T goes from min(T) [0 0 0 0 0 0 0] -3.36207e-12 to max(T) [0 0 0 0 0 0 0] 0.951348

ExecutionTime = 9.04 s  ClockTime = 136 s

Time = 0.265
Courant Number mean: 0.224168 max: 0.509429
DILUPBiCG:  Solving for T, Initial residual = 0.00692104, Final residual = 9.28361e-11, No Iterations 3
DILUPBiCG:  Solving for T, Initial residual = 4.84741e-05, Final residual = 3.58383e-09, No Iterations 2
DILUPBiCG:  Solving for T, Initial residual = 7.96179e-07, Final residual = 1.30223e-09, No Iterations 1
DILUPBiCG:  Solving for T, Initial residual = 4.17499e-08, Final residual = 7.64942e-11, No Iterations 1
 T goes from min(T) [0 0 0 0 0 0 0] -3.56684e-12 to max(T) [0 0 0 0 0 0 0] 0.94901

ExecutionTime = 9.18 s  ClockTime = 138 s

Time = 0.27
Courant Number mean: 0.223877 max: 0.509732
DILUPBiCG:  Solving for T, Initial residual = 0.00693016, Final residual = 9.52409e-11, No Iterations 3
DILUPBiCG:  Solving for T, Initial residual = 4.89588e-05, Final residual = 3.95694e-09, No Iterations 2
DILUPBiCG:  Solving for T, Initial residual = 8.12373e-07, Final residual = 1.33344e-09, No Iterations 1
DILUPBiCG:  Solving for T, Initial residual = 4.27433e-08, Final residual = 7.8537e-11, No Iterations 1
 T goes from min(T) [0 0 0 0 0 0 0] -4.70495e-12 to max(T) [0 0 0 0 0 0 0] 0.949888

ExecutionTime = 9.31 s  ClockTime = 141 s

Time = 0.275
Courant Number mean: 0.223581 max: 0.51
DILUPBiCG:  Solving for T, Initial residual = 0.00693631, Final residual = 9.81977e-11, No Iterations 3
DILUPBiCG:  Solving for T, Initial residual = 4.93838e-05, Final residual = 4.26924e-09, No Iterations 2
DILUPBiCG:  Solving for T, Initial residual = 8.28789e-07, Final residual = 1.36727e-09, No Iterations 1
DILUPBiCG:  Solving for T, Initial residual = 4.36518e-08, Final residual = 8.06698e-11, No Iterations 1
 T goes from min(T) [0 0 0 0 0 0 0] -5.46346e-12 to max(T) [0 0 0 0 0 0 0] 0.950598

ExecutionTime = 9.44 s  ClockTime = 143 s

Time = 0.28
Courant Number mean: 0.22328 max: 0.510234
DILUPBiCG:  Solving for T, Initial residual = 0.00694085, Final residual = 1.01865e-10, No Iterations 3
DILUPBiCG:  Solving for T, Initial residual = 4.9807e-05, Final residual = 4.43663e-09, No Iterations 2
DILUPBiCG:  Solving for T, Initial residual = 8.45375e-07, Final residual = 1.40292e-09, No Iterations 1
DILUPBiCG:  Solving for T, Initial residual = 4.44934e-08, Final residual = 8.27584e-11, No Iterations 1
 T goes from min(T) [0 0 0 0 0 0 0] -5.55889e-12 to max(T) [0 0 0 0 0 0 0] 0.952123

ExecutionTime = 9.57 s  ClockTime = 146 s

Time = 0.285
Courant Number mean: 0.222974 max: 0.51049
DILUPBiCG:  Solving for T, Initial residual = 0.00694567, Final residual = 1.06371e-10, No Iterations 3
DILUPBiCG:  Solving for T, Initial residual = 5.02277e-05, Final residual = 4.38905e-09, No Iterations 2
DILUPBiCG:  Solving for T, Initial residual = 8.6118e-07, Final residual = 1.4376e-09, No Iterations 1
DILUPBiCG:  Solving for T, Initial residual = 4.52745e-08, Final residual = 8.53798e-11, No Iterations 1
 T goes from min(T) [0 0 0 0 0 0 0] -4.68234e-12 to max(T) [0 0 0 0 0 0 0] 0.952962

ExecutionTime = 9.7 s  ClockTime = 148 s

Time = 0.29
Courant Number mean: 0.222665 max: 0.510774
DILUPBiCG:  Solving for T, Initial residual = 0.00694775, Final residual = 1.11918e-10, No Iterations 3
DILUPBiCG:  Solving for T, Initial residual = 5.07232e-05, Final residual = 4.08871e-09, No Iterations 2
DILUPBiCG:  Solving for T, Initial residual = 8.75814e-07, Final residual = 1.47373e-09, No Iterations 1
DILUPBiCG:  Solving for T, Initial residual = 4.60778e-08, Final residual = 8.8053e-11, No Iterations 1
 T goes from min(T) [0 0 0 0 0 0 0] -4.08152e-12 to max(T) [0 0 0 0 0 0 0] 0.952335

ExecutionTime = 9.83 s  ClockTime = 150 s

Time = 0.295
Courant Number mean: 0.22235 max: 0.511134
DILUPBiCG:  Solving for T, Initial residual = 0.00695482, Final residual = 1.18268e-10, No Iterations 3
DILUPBiCG:  Solving for T, Initial residual = 5.12549e-05, Final residual = 3.5703e-09, No Iterations 2
DILUPBiCG:  Solving for T, Initial residual = 8.90599e-07, Final residual = 1.51218e-09, No Iterations 1
DILUPBiCG:  Solving for T, Initial residual = 4.68093e-08, Final residual = 9.0728e-11, No Iterations 1
 T goes from min(T) [0 0 0 0 0 0 0] -4.86721e-12 to max(T) [0 0 0 0 0 0 0] 0.952371

ExecutionTime = 9.98 s  ClockTime = 153 s

Time = 0.3
Courant Number mean: 0.222038 max: 0.511553
DILUPBiCG:  Solving for T, Initial residual = 0.00696104, Final residual = 1.25581e-10, No Iterations 3
DILUPBiCG:  Solving for T, Initial residual = 5.17873e-05, Final residual = 2.95493e-09, No Iterations 2
DILUPBiCG:  Solving for T, Initial residual = 9.071e-07, Final residual = 1.55604e-09, No Iterations 1
DILUPBiCG:  Solving for T, Initial residual = 4.75981e-08, Final residual = 9.39241e-11, No Iterations 1
 T goes from min(T) [0 0 0 0 0 0 0] -6.10024e-12 to max(T) [0 0 0 0 0 0 0] 0.952614

ExecutionTime = 10.12 s  ClockTime = 158 s

Time = 0.305
Courant Number mean: 0.221727 max: 0.511938
DILUPBiCG:  Solving for T, Initial residual = 0.00696886, Final residual = 1.33985e-10, No Iterations 3
DILUPBiCG:  Solving for T, Initial residual = 5.22975e-05, Final residual = 2.32988e-09, No Iterations 2
DILUPBiCG:  Solving for T, Initial residual = 9.2433e-07, Final residual = 1.60646e-09, No Iterations 1
DILUPBiCG:  Solving for T, Initial residual = 4.83474e-08, Final residual = 9.72539e-11, No Iterations 1
 T goes from min(T) [0 0 0 0 0 0 0] -7.95347e-12 to max(T) [0 0 0 0 0 0 0] 0.952325

ExecutionTime = 10.28 s  ClockTime = 162 s

Time = 0.31
Courant Number mean: 0.221414 max: 0.512289
DILUPBiCG:  Solving for T, Initial residual = 0.00697698, Final residual = 1.44144e-10, No Iterations 3
DILUPBiCG:  Solving for T, Initial residual = 5.27826e-05, Final residual = 1.77376e-09, No Iterations 2
DILUPBiCG:  Solving for T, Initial residual = 9.42143e-07, Final residual = 1.65959e-09, No Iterations 1
DILUPBiCG:  Solving for T, Initial residual = 4.90711e-08, Final residual = 1.00906e-10, No Iterations 1
 T goes from min(T) [0 0 0 0 0 0 0] -1.5501e-11 to max(T) [0 0 0 0 0 0 0] 0.951533

ExecutionTime = 10.42 s  ClockTime = 166 s

Time = 0.315
Courant Number mean: 0.221097 max: 0.512606
DILUPBiCG:  Solving for T, Initial residual = 0.00698221, Final residual = 1.55874e-10, No Iterations 3
DILUPBiCG:  Solving for T, Initial residual = 5.32631e-05, Final residual = 1.31568e-09, No Iterations 2
DILUPBiCG:  Solving for T, Initial residual = 9.59231e-07, Final residual = 1.71259e-09, No Iterations 1
DILUPBiCG:  Solving for T, Initial residual = 4.98122e-08, Final residual = 1.04661e-10, No Iterations 1
 T goes from min(T) [0 0 0 0 0 0 0] -2.49643e-11 to max(T) [0 0 0 0 0 0 0] 0.950432

ExecutionTime = 10.56 s  ClockTime = 169 s

Time = 0.32
Courant Number mean: 0.220777 max: 0.512889
DILUPBiCG:  Solving for T, Initial residual = 0.00698676, Final residual = 1.70692e-10, No Iterations 3
DILUPBiCG:  Solving for T, Initial residual = 5.37496e-05, Final residual = 9.53552e-10, No Iterations 2
DILUPBiCG:  Solving for T, Initial residual = 9.7684e-07, Final residual = 1.76387e-09, No Iterations 1
DILUPBiCG:  Solving for T, Initial residual = 5.04742e-08, Final residual = 1.08515e-10, No Iterations 1
 T goes from min(T) [0 0 0 0 0 0 0] -1.06521e-10 to max(T) [0 0 0 0 0 0 0] 0.951528

ExecutionTime = 10.69 s  ClockTime = 171 s

Time = 0.325
Courant Number mean: 0.220454 max: 0.513137
DILUPBiCG:  Solving for T, Initial residual = 0.00698703, Final residual = 1.89322e-10, No Iterations 3
DILUPBiCG:  Solving for T, Initial residual = 5.42924e-05, Final residual = 6.73268e-10, No Iterations 2
DILUPBiCG:  Solving for T, Initial residual = 9.93997e-07, Final residual = 1.82291e-09, No Iterations 1
DILUPBiCG:  Solving for T, Initial residual = 5.10717e-08, Final residual = 1.1234e-10, No Iterations 1
 T goes from min(T) [0 0 0 0 0 0 0] -1.81638e-10 to max(T) [0 0 0 0 0 0 0] 0.95125

ExecutionTime = 10.83 s  ClockTime = 174 s

Time = 0.33
Courant Number mean: 0.220126 max: 0.513352
DILUPBiCG:  Solving for T, Initial residual = 0.00699218, Final residual = 2.1346e-10, No Iterations 3
DILUPBiCG:  Solving for T, Initial residual = 5.47954e-05, Final residual = 4.6095e-10, No Iterations 2
DILUPBiCG:  Solving for T, Initial residual = 1.01028e-06, Final residual = 1.88943e-09, No Iterations 1
DILUPBiCG:  Solving for T, Initial residual = 5.1574e-08, Final residual = 1.16763e-10, No Iterations 1
 T goes from min(T) [0 0 0 0 0 0 0] -2.51034e-10 to max(T) [0 0 0 0 0 0 0] 0.949942

ExecutionTime = 10.96 s  ClockTime = 176 s

Time = 0.335
Courant Number mean: 0.219792 max: 0.513533
DILUPBiCG:  Solving for T, Initial residual = 0.00700234, Final residual = 2.44368e-10, No Iterations 3
DILUPBiCG:  Solving for T, Initial residual = 5.52964e-05, Final residual = 3.13159e-10, No Iterations 2
DILUPBiCG:  Solving for T, Initial residual = 1.02561e-06, Final residual = 1.95986e-09, No Iterations 1
DILUPBiCG:  Solving for T, Initial residual = 5.2031e-08, Final residual = 1.21197e-10, No Iterations 1
 T goes from min(T) [0 0 0 0 0 0 0] -3.15342e-10 to max(T) [0 0 0 0 0 0 0] 0.948812

ExecutionTime = 11.1 s  ClockTime = 179 s

Time = 0.34
Courant Number mean: 0.219457 max: 0.513679
DILUPBiCG:  Solving for T, Initial residual = 0.00701196, Final residual = 2.8272e-10, No Iterations 3
DILUPBiCG:  Solving for T, Initial residual = 5.58407e-05, Final residual = 3.05506e-10, No Iterations 2
DILUPBiCG:  Solving for T, Initial residual = 1.0395e-06, Final residual = 2.02755e-09, No Iterations 1
DILUPBiCG:  Solving for T, Initial residual = 5.25803e-08, Final residual = 1.25889e-10, No Iterations 1
 T goes from min(T) [0 0 0 0 0 0 0] -3.75122e-10 to max(T) [0 0 0 0 0 0 0] 0.947247

ExecutionTime = 11.24 s  ClockTime = 182 s

Time = 0.345
Courant Number mean: 0.219127 max: 0.513791
DILUPBiCG:  Solving for T, Initial residual = 0.00701877, Final residual = 3.27801e-10, No Iterations 3
DILUPBiCG:  Solving for T, Initial residual = 5.64128e-05, Final residual = 3.32926e-10, No Iterations 2
DILUPBiCG:  Solving for T, Initial residual = 1.05275e-06, Final residual = 2.0947e-09, No Iterations 1
DILUPBiCG:  Solving for T, Initial residual = 5.31181e-08, Final residual = 1.30884e-10, No Iterations 1
 T goes from min(T) [0 0 0 0 0 0 0] -1.26725e-09 to max(T) [0 0 0 0 0 0 0] 0.947086

ExecutionTime = 11.37 s  ClockTime = 184 s

Time = 0.35
Courant Number mean: 0.218794 max: 0.513869
DILUPBiCG:  Solving for T, Initial residual = 0.00702592, Final residual = 3.76332e-10, No Iterations 3
DILUPBiCG:  Solving for T, Initial residual = 5.69588e-05, Final residual = 3.62692e-10, No Iterations 2
DILUPBiCG:  Solving for T, Initial residual = 1.06418e-06, Final residual = 2.16549e-09, No Iterations 1
DILUPBiCG:  Solving for T, Initial residual = 5.35741e-08, Final residual = 1.35788e-10, No Iterations 1
 T goes from min(T) [0 0 0 0 0 0 0] -2.67081e-09 to max(T) [0 0 0 0 0 0 0] 0.949466

ExecutionTime = 11.51 s  ClockTime = 187 s

Time = 0.355
Courant Number mean: 0.218458 max: 0.514184
DILUPBiCG:  Solving for T, Initial residual = 0.00703243, Final residual = 4.25181e-10, No Iterations 3
DILUPBiCG:  Solving for T, Initial residual = 5.74596e-05, Final residual = 3.91382e-10, No Iterations 2
DILUPBiCG:  Solving for T, Initial residual = 1.07878e-06, Final residual = 2.24885e-09, No Iterations 1
DILUPBiCG:  Solving for T, Initial residual = 5.39888e-08, Final residual = 1.40968e-10, No Iterations 1
 T goes from min(T) [0 0 0 0 0 0 0] -3.99094e-09 to max(T) [0 0 0 0 0 0 0] 0.951258

ExecutionTime = 11.65 s  ClockTime = 189 s

Time = 0.36
Courant Number mean: 0.218121 max: 0.514511
DILUPBiCG:  Solving for T, Initial residual = 0.00703709, Final residual = 4.71314e-10, No Iterations 3
DILUPBiCG:  Solving for T, Initial residual = 5.79491e-05, Final residual = 4.1826e-10, No Iterations 2
DILUPBiCG:  Solving for T, Initial residual = 1.09933e-06, Final residual = 2.34123e-09, No Iterations 1
DILUPBiCG:  Solving for T, Initial residual = 5.44909e-08, Final residual = 1.46189e-10, No Iterations 1
 T goes from min(T) [0 0 0 0 0 0 0] -5.23476e-09 to max(T) [0 0 0 0 0 0 0] 0.951604

ExecutionTime = 11.78 s  ClockTime = 192 s

Time = 0.365
Courant Number mean: 0.217778 max: 0.514805
DILUPBiCG:  Solving for T, Initial residual = 0.00703918, Final residual = 5.12745e-10, No Iterations 3
DILUPBiCG:  Solving for T, Initial residual = 5.85065e-05, Final residual = 4.42414e-10, No Iterations 2
DILUPBiCG:  Solving for T, Initial residual = 1.11757e-06, Final residual = 2.43363e-09, No Iterations 1
DILUPBiCG:  Solving for T, Initial residual = 5.49794e-08, Final residual = 1.51672e-10, No Iterations 1
 T goes from min(T) [0 0 0 0 0 0 0] -6.40866e-09 to max(T) [0 0 0 0 0 0 0] 0.950487

ExecutionTime = 11.92 s  ClockTime = 195 s

Time = 0.37
Courant Number mean: 0.217432 max: 0.515064
DILUPBiCG:  Solving for T, Initial residual = 0.00704647, Final residual = 5.49418e-10, No Iterations 3
DILUPBiCG:  Solving for T, Initial residual = 5.91083e-05, Final residual = 4.63848e-10, No Iterations 2
DILUPBiCG:  Solving for T, Initial residual = 1.13419e-06, Final residual = 2.52256e-09, No Iterations 1
DILUPBiCG:  Solving for T, Initial residual = 5.54881e-08, Final residual = 1.57215e-10, No Iterations 1
 T goes from min(T) [0 0 0 0 0 0 0] -7.51839e-09 to max(T) [0 0 0 0 0 0 0] 0.947897

ExecutionTime = 12.07 s  ClockTime = 197 s

Time = 0.375
Courant Number mean: 0.217084 max: 0.51529
DILUPBiCG:  Solving for T, Initial residual = 0.00705686, Final residual = 5.79341e-10, No Iterations 3
DILUPBiCG:  Solving for T, Initial residual = 5.97051e-05, Final residual = 4.81742e-10, No Iterations 2
DILUPBiCG:  Solving for T, Initial residual = 1.15045e-06, Final residual = 2.61086e-09, No Iterations 1
DILUPBiCG:  Solving for T, Initial residual = 5.59409e-08, Final residual = 1.62927e-10, No Iterations 1
 T goes from min(T) [0 0 0 0 0 0 0] -8.56909e-09 to max(T) [0 0 0 0 0 0 0] 0.943832

ExecutionTime = 12.2 s  ClockTime = 200 s

Time = 0.38
Courant Number mean: 0.216732 max: 0.515481
DILUPBiCG:  Solving for T, Initial residual = 0.00706575, Final residual = 6.02992e-10, No Iterations 3
DILUPBiCG:  Solving for T, Initial residual = 6.02722e-05, Final residual = 4.9908e-10, No Iterations 2
DILUPBiCG:  Solving for T, Initial residual = 1.16699e-06, Final residual = 2.7189e-09, No Iterations 1
DILUPBiCG:  Solving for T, Initial residual = 5.64761e-08, Final residual = 1.68938e-10, No Iterations 1
 T goes from min(T) [0 0 0 0 0 0 0] -9.56539e-09 to max(T) [0 0 0 0 0 0 0] 0.942435

ExecutionTime = 12.33 s  ClockTime = 202 s

Time = 0.385
Courant Number mean: 0.21638 max: 0.515639
DILUPBiCG:  Solving for T, Initial residual = 0.00707389, Final residual = 6.20968e-10, No Iterations 3
DILUPBiCG:  Solving for T, Initial residual = 6.07994e-05, Final residual = 5.15933e-10, No Iterations 2
DILUPBiCG:  Solving for T, Initial residual = 1.18567e-06, Final residual = 2.83757e-09, No Iterations 1
DILUPBiCG:  Solving for T, Initial residual = 5.68844e-08, Final residual = 1.75449e-10, No Iterations 1
 T goes from min(T) [0 0 0 0 0 0 0] -1.05114e-08 to max(T) [0 0 0 0 0 0 0] 0.941847

ExecutionTime = 12.47 s  ClockTime = 205 s

Time = 0.39
Courant Number mean: 0.216029 max: 0.515762
DILUPBiCG:  Solving for T, Initial residual = 0.00708453, Final residual = 6.32183e-10, No Iterations 3
DILUPBiCG:  Solving for T, Initial residual = 6.12783e-05, Final residual = 5.31169e-10, No Iterations 2
DILUPBiCG:  Solving for T, Initial residual = 1.20382e-06, Final residual = 2.9567e-09, No Iterations 1
DILUPBiCG:  Solving for T, Initial residual = 5.73237e-08, Final residual = 1.82507e-10, No Iterations 1
 T goes from min(T) [0 0 0 0 0 0 0] -1.14108e-08 to max(T) [0 0 0 0 0 0 0] 0.94576

ExecutionTime = 12.6 s  ClockTime = 208 s

Time = 0.395
Courant Number mean: 0.215678 max: 0.515851
DILUPBiCG:  Solving for T, Initial residual = 0.0070921, Final residual = 6.37335e-10, No Iterations 3
DILUPBiCG:  Solving for T, Initial residual = 6.18202e-05, Final residual = 5.46006e-10, No Iterations 2
DILUPBiCG:  Solving for T, Initial residual = 1.21974e-06, Final residual = 3.07631e-09, No Iterations 1
DILUPBiCG:  Solving for T, Initial residual = 5.78466e-08, Final residual = 1.89688e-10, No Iterations 1
 T goes from min(T) [0 0 0 0 0 0 0] -1.2267e-08 to max(T) [0 0 0 0 0 0 0] 0.948426

ExecutionTime = 12.74 s  ClockTime = 210 s

Time = 0.4
Courant Number mean: 0.215324 max: 0.515906
DILUPBiCG:  Solving for T, Initial residual = 0.00709486, Final residual = 6.3731e-10, No Iterations 3
DILUPBiCG:  Solving for T, Initial residual = 6.23738e-05, Final residual = 5.59746e-10, No Iterations 2
DILUPBiCG:  Solving for T, Initial residual = 1.23445e-06, Final residual = 3.19066e-09, No Iterations 1
DILUPBiCG:  Solving for T, Initial residual = 5.84717e-08, Final residual = 1.96855e-10, No Iterations 1
 T goes from min(T) [0 0 0 0 0 0 0] -1.30829e-08 to max(T) [0 0 0 0 0 0 0] 0.949654

ExecutionTime = 12.88 s  ClockTime = 213 s

Time = 0.405
Courant Number mean: 0.214968 max: 0.515928
DILUPBiCG:  Solving for T, Initial residual = 0.00709712, Final residual = 6.33696e-10, No Iterations 3
DILUPBiCG:  Solving for T, Initial residual = 6.30101e-05, Final residual = 5.73628e-10, No Iterations 2
DILUPBiCG:  Solving for T, Initial residual = 1.24886e-06, Final residual = 3.30854e-09, No Iterations 1
DILUPBiCG:  Solving for T, Initial residual = 5.90084e-08, Final residual = 2.0405e-10, No Iterations 1
 T goes from min(T) [0 0 0 0 0 0 0] -1.38611e-08 to max(T) [0 0 0 0 0 0 0] 0.949422

ExecutionTime = 13.03 s  ClockTime = 216 s

Time = 0.41
Courant Number mean: 0.214607 max: 0.515951
DILUPBiCG:  Solving for T, Initial residual = 0.00710539, Final residual = 6.25683e-10, No Iterations 3
DILUPBiCG:  Solving for T, Initial residual = 6.3583e-05, Final residual = 5.87963e-10, No Iterations 2
DILUPBiCG:  Solving for T, Initial residual = 1.26375e-06, Final residual = 3.44236e-09, No Iterations 1
DILUPBiCG:  Solving for T, Initial residual = 5.94562e-08, Final residual = 2.10694e-10, No Iterations 1
 T goes from min(T) [0 0 0 0 0 0 0] -2.3813e-08 to max(T) [0 0 0 0 0 0 0] 0.94772

ExecutionTime = 13.19 s  ClockTime = 219 s

Time = 0.415
Courant Number mean: 0.214243 max: 0.516112
DILUPBiCG:  Solving for T, Initial residual = 0.00711764, Final residual = 6.14519e-10, No Iterations 3
DILUPBiCG:  Solving for T, Initial residual = 6.41499e-05, Final residual = 6.02393e-10, No Iterations 2
DILUPBiCG:  Solving for T, Initial residual = 1.28073e-06, Final residual = 3.58971e-09, No Iterations 1
DILUPBiCG:  Solving for T, Initial residual = 5.97848e-08, Final residual = 2.1744e-10, No Iterations 1
 T goes from min(T) [0 0 0 0 0 0 0] -4.15508e-08 to max(T) [0 0 0 0 0 0 0] 0.944542

ExecutionTime = 13.33 s  ClockTime = 221 s

Time = 0.42
Courant Number mean: 0.213874 max: 0.516245
DILUPBiCG:  Solving for T, Initial residual = 0.00713165, Final residual = 6.00994e-10, No Iterations 3
DILUPBiCG:  Solving for T, Initial residual = 6.47036e-05, Final residual = 6.16899e-10, No Iterations 2
DILUPBiCG:  Solving for T, Initial residual = 1.29759e-06, Final residual = 3.73309e-09, No Iterations 1
DILUPBiCG:  Solving for T, Initial residual = 6.01069e-08, Final residual = 2.24494e-10, No Iterations 1
 T goes from min(T) [0 0 0 0 0 0 0] -6.17842e-08 to max(T) [0 0 0 0 0 0 0] 0.941905

ExecutionTime = 13.47 s  ClockTime = 224 s

Time = 0.425
Courant Number mean: 0.213504 max: 0.516443
DILUPBiCG:  Solving for T, Initial residual = 0.00714192, Final residual = 5.85914e-10, No Iterations 3
DILUPBiCG:  Solving for T, Initial residual = 6.53571e-05, Final residual = 6.31319e-10, No Iterations 2
DILUPBiCG:  Solving for T, Initial residual = 1.31184e-06, Final residual = 3.87369e-09, No Iterations 1
DILUPBiCG:  Solving for T, Initial residual = 6.07149e-08, Final residual = 2.32466e-10, No Iterations 1
 T goes from min(T) [0 0 0 0 0 0 0] -8.11978e-08 to max(T) [0 0 0 0 0 0 0] 0.941563

ExecutionTime = 13.59 s  ClockTime = 226 s

Time = 0.43
Courant Number mean: 0.213134 max: 0.516608
DILUPBiCG:  Solving for T, Initial residual = 0.00715355, Final residual = 5.69769e-10, No Iterations 3
DILUPBiCG:  Solving for T, Initial residual = 6.59507e-05, Final residual = 6.46056e-10, No Iterations 2
DILUPBiCG:  Solving for T, Initial residual = 1.32822e-06, Final residual = 4.01683e-09, No Iterations 1
DILUPBiCG:  Solving for T, Initial residual = 6.14017e-08, Final residual = 2.40119e-10, No Iterations 1
 T goes from min(T) [0 0 0 0 0 0 0] -9.98236e-08 to max(T) [0 0 0 0 0 0 0] 0.940806

ExecutionTime = 13.73 s  ClockTime = 229 s

Time = 0.435
Courant Number mean: 0.212767 max: 0.516739
DILUPBiCG:  Solving for T, Initial residual = 0.00716149, Final residual = 5.53073e-10, No Iterations 3
DILUPBiCG:  Solving for T, Initial residual = 6.65881e-05, Final residual = 6.60777e-10, No Iterations 2
DILUPBiCG:  Solving for T, Initial residual = 1.34597e-06, Final residual = 4.16959e-09, No Iterations 1
DILUPBiCG:  Solving for T, Initial residual = 6.19436e-08, Final residual = 2.46973e-10, No Iterations 1
 T goes from min(T) [0 0 0 0 0 0 0] -1.17693e-07 to max(T) [0 0 0 0 0 0 0] 0.942542

ExecutionTime = 13.86 s  ClockTime = 231 s

Time = 0.44
Courant Number mean: 0.212401 max: 0.516836
DILUPBiCG:  Solving for T, Initial residual = 0.00717346, Final residual = 5.36101e-10, No Iterations 3
DILUPBiCG:  Solving for T, Initial residual = 6.71529e-05, Final residual = 6.76516e-10, No Iterations 2
DILUPBiCG:  Solving for T, Initial residual = 1.36384e-06, Final residual = 4.33236e-09, No Iterations 1
DILUPBiCG:  Solving for T, Initial residual = 6.23648e-08, Final residual = 2.53966e-10, No Iterations 1
 T goes from min(T) [0 0 0 0 0 0 0] -1.34834e-07 to max(T) [0 0 0 0 0 0 0] 0.945696

ExecutionTime = 13.98 s  ClockTime = 234 s

Time = 0.445
Courant Number mean: 0.212032 max: 0.516899
DILUPBiCG:  Solving for T, Initial residual = 0.00718326, Final residual = 5.21054e-10, No Iterations 3
DILUPBiCG:  Solving for T, Initial residual = 6.76562e-05, Final residual = 6.92704e-10, No Iterations 2
DILUPBiCG:  Solving for T, Initial residual = 1.38422e-06, Final residual = 4.50603e-09, No Iterations 1
DILUPBiCG:  Solving for T, Initial residual = 6.27604e-08, Final residual = 2.61083e-10, No Iterations 1
 T goes from min(T) [0 0 0 0 0 0 0] -1.51278e-07 to max(T) [0 0 0 0 0 0 0] 0.947511

ExecutionTime = 14.12 s  ClockTime = 236 s

Time = 0.45
Courant Number mean: 0.211661 max: 0.516929
DILUPBiCG:  Solving for T, Initial residual = 0.00719411, Final residual = 5.06824e-10, No Iterations 3
DILUPBiCG:  Solving for T, Initial residual = 6.81366e-05, Final residual = 7.09362e-10, No Iterations 2
DILUPBiCG:  Solving for T, Initial residual = 1.40523e-06, Final residual = 4.67746e-09, No Iterations 1
DILUPBiCG:  Solving for T, Initial residual = 6.31027e-08, Final residual = 2.69423e-10, No Iterations 1
 T goes from min(T) [0 0 0 0 0 0 0] -1.67053e-07 to max(T) [0 0 0 0 0 0 0] 0.947973

ExecutionTime = 14.26 s  ClockTime = 239 s

Time = 0.455
Courant Number mean: 0.211286 max: 0.516924
DILUPBiCG:  Solving for T, Initial residual = 0.00720102, Final residual = 4.94489e-10, No Iterations 3
DILUPBiCG:  Solving for T, Initial residual = 6.87223e-05, Final residual = 7.25501e-10, No Iterations 2
DILUPBiCG:  Solving for T, Initial residual = 1.42349e-06, Final residual = 4.84437e-09, No Iterations 1
DILUPBiCG:  Solving for T, Initial residual = 6.36579e-08, Final residual = 2.77731e-10, No Iterations 1
 T goes from min(T) [0 0 0 0 0 0 0] -1.82187e-07 to max(T) [0 0 0 0 0 0 0] 0.947071

ExecutionTime = 14.39 s  ClockTime = 241 s

Time = 0.46
Courant Number mean: 0.210906 max: 0.517058
DILUPBiCG:  Solving for T, Initial residual = 0.00721323, Final residual = 4.84425e-10, No Iterations 3
DILUPBiCG:  Solving for T, Initial residual = 6.93659e-05, Final residual = 7.43124e-10, No Iterations 2
DILUPBiCG:  Solving for T, Initial residual = 1.44148e-06, Final residual = 5.0131e-09, No Iterations 1
DILUPBiCG:  Solving for T, Initial residual = 6.43517e-08, Final residual = 2.86481e-10, No Iterations 1
 T goes from min(T) [0 0 0 0 0 0 0] -1.96708e-07 to max(T) [0 0 0 0 0 0 0] 0.944803

ExecutionTime = 14.52 s  ClockTime = 243 s

Time = 0.465
Courant Number mean: 0.210523 max: 0.517195
DILUPBiCG:  Solving for T, Initial residual = 0.00722364, Final residual = 4.76676e-10, No Iterations 3
DILUPBiCG:  Solving for T, Initial residual = 6.99991e-05, Final residual = 7.60961e-10, No Iterations 2
DILUPBiCG:  Solving for T, Initial residual = 1.4605e-06, Final residual = 5.1882e-09, No Iterations 1
DILUPBiCG:  Solving for T, Initial residual = 6.51665e-08, Final residual = 2.94626e-10, No Iterations 1
 T goes from min(T) [0 0 0 0 0 0 0] -2.10645e-07 to max(T) [0 0 0 0 0 0 0] 0.941734

ExecutionTime = 14.65 s  ClockTime = 246 s

Time = 0.47
Courant Number mean: 0.210139 max: 0.517299
DILUPBiCG:  Solving for T, Initial residual = 0.00723332, Final residual = 4.70318e-10, No Iterations 3
DILUPBiCG:  Solving for T, Initial residual = 7.05681e-05, Final residual = 7.80009e-10, No Iterations 2
DILUPBiCG:  Solving for T, Initial residual = 1.47965e-06, Final residual = 5.35972e-09, No Iterations 1
DILUPBiCG:  Solving for T, Initial residual = 6.58064e-08, Final residual = 3.02277e-10, No Iterations 1
 T goes from min(T) [0 0 0 0 0 0 0] -2.24028e-07 to max(T) [0 0 0 0 0 0 0] 0.940494

ExecutionTime = 14.79 s  ClockTime = 248 s

Time = 0.475
Courant Number mean: 0.209759 max: 0.517368
DILUPBiCG:  Solving for T, Initial residual = 0.00724848, Final residual = 4.64969e-10, No Iterations 3
DILUPBiCG:  Solving for T, Initial residual = 7.11618e-05, Final residual = 7.99729e-10, No Iterations 2
DILUPBiCG:  Solving for T, Initial residual = 1.50027e-06, Final residual = 5.54519e-09, No Iterations 1
DILUPBiCG:  Solving for T, Initial residual = 6.63054e-08, Final residual = 3.09863e-10, No Iterations 1
 T goes from min(T) [0 0 0 0 0 0 0] -2.36887e-07 to max(T) [0 0 0 0 0 0 0] 0.940864

ExecutionTime = 14.91 s  ClockTime = 250 s

Time = 0.48
Courant Number mean: 0.209377 max: 0.517403
DILUPBiCG:  Solving for T, Initial residual = 0.00726459, Final residual = 4.61279e-10, No Iterations 3
DILUPBiCG:  Solving for T, Initial residual = 7.17816e-05, Final residual = 8.19409e-10, No Iterations 2
DILUPBiCG:  Solving for T, Initial residual = 1.51993e-06, Final residual = 5.74321e-09, No Iterations 1
DILUPBiCG:  Solving for T, Initial residual = 6.67708e-08, Final residual = 3.18728e-10, No Iterations 1
 T goes from min(T) [0 0 0 0 0 0 0] -2.49251e-07 to max(T) [0 0 0 0 0 0 0] 0.941802

ExecutionTime = 15.04 s  ClockTime = 252 s

Time = 0.485
Courant Number mean: 0.208995 max: 0.517404
DILUPBiCG:  Solving for T, Initial residual = 0.00727935, Final residual = 4.58863e-10, No Iterations 3
DILUPBiCG:  Solving for T, Initial residual = 7.24214e-05, Final residual = 8.39124e-10, No Iterations 2
DILUPBiCG:  Solving for T, Initial residual = 1.54098e-06, Final residual = 5.92553e-09, No Iterations 1
DILUPBiCG:  Solving for T, Initial residual = 6.76276e-08, Final residual = 3.26834e-10, No Iterations 1
 T goes from min(T) [0 0 0 0 0 0 0] -2.61153e-07 to max(T) [0 0 0 0 0 0 0] 0.942321

ExecutionTime = 15.2 s  ClockTime = 255 s

Time = 0.49
Courant Number mean: 0.20861 max: 0.517371
DILUPBiCG:  Solving for T, Initial residual = 0.00729322, Final residual = 4.57832e-10, No Iterations 3
DILUPBiCG:  Solving for T, Initial residual = 7.30358e-05, Final residual = 8.60698e-10, No Iterations 2
DILUPBiCG:  Solving for T, Initial residual = 1.55973e-06, Final residual = 6.11389e-09, No Iterations 1
DILUPBiCG:  Solving for T, Initial residual = 6.85219e-08, Final residual = 3.35607e-10, No Iterations 1
 T goes from min(T) [0 0 0 0 0 0 0] -2.72627e-07 to max(T) [0 0 0 0 0 0 0] 0.942442

ExecutionTime = 15.34 s  ClockTime = 257 s

Time = 0.495
Courant Number mean: 0.208222 max: 0.517304
DILUPBiCG:  Solving for T, Initial residual = 0.00730375, Final residual = 4.58508e-10, No Iterations 3
DILUPBiCG:  Solving for T, Initial residual = 7.36667e-05, Final residual = 8.81501e-10, No Iterations 2
DILUPBiCG:  Solving for T, Initial residual = 1.58105e-06, Final residual = 6.30721e-09, No Iterations 1
DILUPBiCG:  Solving for T, Initial residual = 6.94978e-08, Final residual = 3.43824e-10, No Iterations 1
 T goes from min(T) [0 0 0 0 0 0 0] -2.83706e-07 to max(T) [0 0 0 0 0 0 0] 0.942188

ExecutionTime = 15.49 s  ClockTime = 260 s

Time = 0.5
Courant Number mean: 0.207833 max: 0.517203
DILUPBiCG:  Solving for T, Initial residual = 0.00731207, Final residual = 4.60835e-10, No Iterations 3
DILUPBiCG:  Solving for T, Initial residual = 7.42625e-05, Final residual = 9.03832e-10, No Iterations 2
DILUPBiCG:  Solving for T, Initial residual = 1.60372e-06, Final residual = 6.49412e-09, No Iterations 1
DILUPBiCG:  Solving for T, Initial residual = 7.04862e-08, Final residual = 3.52037e-10, No Iterations 1
 T goes from min(T) [0 0 0 0 0 0 0] -2.94429e-07 to max(T) [0 0 0 0 0 0 0] 0.943454

ExecutionTime = 15.63 s  ClockTime = 262 s

Time = 0.505
Courant Number mean: 0.207442 max: 0.517068
DILUPBiCG:  Solving for T, Initial residual = 0.00731678, Final residual = 4.63828e-10, No Iterations 3
DILUPBiCG:  Solving for T, Initial residual = 7.48719e-05, Final residual = 9.27065e-10, No Iterations 2
DILUPBiCG:  Solving for T, Initial residual = 1.6279e-06, Final residual = 6.7016e-09, No Iterations 1
DILUPBiCG:  Solving for T, Initial residual = 7.13383e-08, Final residual = 3.60865e-10, No Iterations 1
 T goes from min(T) [0 0 0 0 0 0 0] -3.04832e-07 to max(T) [0 0 0 0 0 0 0] 0.943731

ExecutionTime = 15.75 s  ClockTime = 264 s

Time = 0.51
Courant Number mean: 0.207046 max: 0.517148
DILUPBiCG:  Solving for T, Initial residual = 0.00732785, Final residual = 4.67884e-10, No Iterations 3
DILUPBiCG:  Solving for T, Initial residual = 7.55271e-05, Final residual = 9.50114e-10, No Iterations 2
DILUPBiCG:  Solving for T, Initial residual = 1.65389e-06, Final residual = 6.91319e-09, No Iterations 1
DILUPBiCG:  Solving for T, Initial residual = 7.20895e-08, Final residual = 3.70996e-10, No Iterations 1
 T goes from min(T) [0 0 0 0 0 0 0] -3.14956e-07 to max(T) [0 0 0 0 0 0 0] 0.942698

ExecutionTime = 15.87 s  ClockTime = 266 s

Time = 0.515
Courant Number mean: 0.206649 max: 0.517258
DILUPBiCG:  Solving for T, Initial residual = 0.00734539, Final residual = 4.72722e-10, No Iterations 3
DILUPBiCG:  Solving for T, Initial residual = 7.62331e-05, Final residual = 9.72836e-10, No Iterations 2
DILUPBiCG:  Solving for T, Initial residual = 1.68004e-06, Final residual = 7.12152e-09, No Iterations 1
DILUPBiCG:  Solving for T, Initial residual = 7.31453e-08, Final residual = 3.80091e-10, No Iterations 1
 T goes from min(T) [0 0 0 0 0 0 0] -5.06059e-07 to max(T) [0 0 0 0 0 0 0] 0.940782

ExecutionTime = 15.99 s  ClockTime = 268 s

Time = 0.52
Courant Number mean: 0.206256 max: 0.517335
DILUPBiCG:  Solving for T, Initial residual = 0.0073605, Final residual = 4.7808e-10, No Iterations 3
DILUPBiCG:  Solving for T, Initial residual = 7.69969e-05, Final residual = 9.97236e-10, No Iterations 2
DILUPBiCG:  Solving for T, Initial residual = 1.70619e-06, Final residual = 7.32928e-09, No Iterations 1
DILUPBiCG:  Solving for T, Initial residual = 7.4446e-08, Final residual = 3.89364e-10, No Iterations 1
 T goes from min(T) [0 0 0 0 0 0 0] -9.01179e-07 to max(T) [0 0 0 0 0 0 0] 0.938067

ExecutionTime = 16.11 s  ClockTime = 271 s

Time = 0.525
Courant Number mean: 0.205864 max: 0.517378
DILUPBiCG:  Solving for T, Initial residual = 0.00737509, Final residual = 4.83471e-10, No Iterations 3
DILUPBiCG:  Solving for T, Initial residual = 7.77228e-05, Final residual = 1.02141e-09, No Iterations 2
DILUPBiCG:  Solving for T, Initial residual = 1.73368e-06, Final residual = 7.54907e-09, No Iterations 1
DILUPBiCG:  Solving for T, Initial residual = 7.57803e-08, Final residual = 3.98382e-10, No Iterations 1
 T goes from min(T) [0 0 0 0 0 0 0] -1.68207e-06 to max(T) [0 0 0 0 0 0 0] 0.934165

ExecutionTime = 16.24 s  ClockTime = 273 s

Time = 0.53
Courant Number mean: 0.20547 max: 0.517387
DILUPBiCG:  Solving for T, Initial residual = 0.0073897, Final residual = 4.89228e-10, No Iterations 3
DILUPBiCG:  Solving for T, Initial residual = 7.83964e-05, Final residual = 1.04696e-09, No Iterations 2
DILUPBiCG:  Solving for T, Initial residual = 1.7608e-06, Final residual = 7.7597e-09, No Iterations 1
DILUPBiCG:  Solving for T, Initial residual = 7.69987e-08, Final residual = 4.07068e-10, No Iterations 1
 T goes from min(T) [0 0 0 0 0 0 0] -2.44739e-06 to max(T) [0 0 0 0 0 0 0] 0.931986

ExecutionTime = 16.37 s  ClockTime = 275 s

Time = 0.535
Courant Number mean: 0.205074 max: 0.517362
DILUPBiCG:  Solving for T, Initial residual = 0.00740442, Final residual = 4.9529e-10, No Iterations 3
DILUPBiCG:  Solving for T, Initial residual = 7.90549e-05, Final residual = 1.07328e-09, No Iterations 2
DILUPBiCG:  Solving for T, Initial residual = 1.78752e-06, Final residual = 7.98691e-09, No Iterations 1
DILUPBiCG:  Solving for T, Initial residual = 7.81078e-08, Final residual = 4.15589e-10, No Iterations 1
 T goes from min(T) [0 0 0 0 0 0 0] -3.19357e-06 to max(T) [0 0 0 0 0 0 0] 0.932053

ExecutionTime = 16.49 s  ClockTime = 277 s

Time = 0.54
Courant Number mean: 0.204677 max: 0.517304
DILUPBiCG:  Solving for T, Initial residual = 0.00741496, Final residual = 5.01823e-10, No Iterations 3
DILUPBiCG:  Solving for T, Initial residual = 7.97791e-05, Final residual = 1.10067e-09, No Iterations 2
DILUPBiCG:  Solving for T, Initial residual = 1.81502e-06, Final residual = 8.19872e-09, No Iterations 1
DILUPBiCG:  Solving for T, Initial residual = 7.89387e-08, Final residual = 4.24865e-10, No Iterations 1
 T goes from min(T) [0 0 0 0 0 0 0] -3.91698e-06 to max(T) [0 0 0 0 0 0 0] 0.93179

ExecutionTime = 16.62 s  ClockTime = 279 s

Time = 0.545
Courant Number mean: 0.204275 max: 0.517212
DILUPBiCG:  Solving for T, Initial residual = 0.00742504, Final residual = 5.09295e-10, No Iterations 3
DILUPBiCG:  Solving for T, Initial residual = 8.05029e-05, Final residual = 1.12713e-09, No Iterations 2
DILUPBiCG:  Solving for T, Initial residual = 1.84401e-06, Final residual = 8.43627e-09, No Iterations 1
DILUPBiCG:  Solving for T, Initial residual = 7.99888e-08, Final residual = 4.34235e-10, No Iterations 1
 T goes from min(T) [0 0 0 0 0 0 0] -4.61392e-06 to max(T) [0 0 0 0 0 0 0] 0.931214

ExecutionTime = 16.75 s  ClockTime = 281 s

Time = 0.55
Courant Number mean: 0.203869 max: 0.517086
DILUPBiCG:  Solving for T, Initial residual = 0.00744086, Final residual = 5.16756e-10, No Iterations 3
DILUPBiCG:  Solving for T, Initial residual = 8.12718e-05, Final residual = 1.1546e-09, No Iterations 2
DILUPBiCG:  Solving for T, Initial residual = 1.87026e-06, Final residual = 8.66185e-09, No Iterations 1
DILUPBiCG:  Solving for T, Initial residual = 8.14425e-08, Final residual = 4.43181e-10, No Iterations 1
 T goes from min(T) [0 0 0 0 0 0 0] -5.28067e-06 to max(T) [0 0 0 0 0 0 0] 0.930346

ExecutionTime = 16.88 s  ClockTime = 284 s

Time = 0.555
Courant Number mean: 0.203462 max: 0.516927
DILUPBiCG:  Solving for T, Initial residual = 0.00745836, Final residual = 5.23837e-10, No Iterations 3
DILUPBiCG:  Solving for T, Initial residual = 8.20645e-05, Final residual = 1.18449e-09, No Iterations 2
DILUPBiCG:  Solving for T, Initial residual = 1.89802e-06, Final residual = 8.88809e-09, No Iterations 1
DILUPBiCG:  Solving for T, Initial residual = 8.30409e-08, Final residual = 4.5278e-10, No Iterations 1
 T goes from min(T) [0 0 0 0 0 0 0] -5.91357e-06 to max(T) [0 0 0 0 0 0 0] 0.933533

ExecutionTime = 17.01 s  ClockTime = 286 s

Time = 0.56
Courant Number mean: 0.203059 max: 0.516734
DILUPBiCG:  Solving for T, Initial residual = 0.00747196, Final residual = 5.3082e-10, No Iterations 3
DILUPBiCG:  Solving for T, Initial residual = 8.28654e-05, Final residual = 1.2152e-09, No Iterations 2
DILUPBiCG:  Solving for T, Initial residual = 1.92925e-06, Final residual = 9.12032e-09, No Iterations 1
DILUPBiCG:  Solving for T, Initial residual = 8.46198e-08, Final residual = 4.6141e-10, No Iterations 1
 T goes from min(T) [0 0 0 0 0 0 0] -6.50902e-06 to max(T) [0 0 0 0 0 0 0] 0.935528

ExecutionTime = 17.14 s  ClockTime = 288 s

Time = 0.565
Courant Number mean: 0.202659 max: 0.516508
DILUPBiCG:  Solving for T, Initial residual = 0.00748322, Final residual = 5.38728e-10, No Iterations 3
DILUPBiCG:  Solving for T, Initial residual = 8.35525e-05, Final residual = 1.2457e-09, No Iterations 2
DILUPBiCG:  Solving for T, Initial residual = 1.96356e-06, Final residual = 9.35242e-09, No Iterations 1
DILUPBiCG:  Solving for T, Initial residual = 8.61567e-08, Final residual = 4.71291e-10, No Iterations 1
 T goes from min(T) [0 0 0 0 0 0 0] -7.06352e-06 to max(T) [0 0 0 0 0 0 0] 0.936476

ExecutionTime = 17.27 s  ClockTime = 290 s

Time = 0.57
Courant Number mean: 0.202258 max: 0.516347
DILUPBiCG:  Solving for T, Initial residual = 0.00749201, Final residual = 5.46792e-10, No Iterations 3
DILUPBiCG:  Solving for T, Initial residual = 8.43266e-05, Final residual = 1.27918e-09, No Iterations 2
DILUPBiCG:  Solving for T, Initial residual = 1.99511e-06, Final residual = 9.6062e-09, No Iterations 1
DILUPBiCG:  Solving for T, Initial residual = 8.76237e-08, Final residual = 4.82151e-10, No Iterations 1
 T goes from min(T) [0 0 0 0 0 0 0] -8.01782e-06 to max(T) [0 0 0 0 0 0 0] 0.936993

ExecutionTime = 17.4 s  ClockTime = 292 s

Time = 0.575
Courant Number mean: 0.201855 max: 0.516361
DILUPBiCG:  Solving for T, Initial residual = 0.00750303, Final residual = 5.55059e-10, No Iterations 3
DILUPBiCG:  Solving for T, Initial residual = 8.51267e-05, Final residual = 1.31179e-09, No Iterations 2
DILUPBiCG:  Solving for T, Initial residual = 2.02884e-06, Final residual = 9.84885e-09, No Iterations 1
DILUPBiCG:  Solving for T, Initial residual = 8.89329e-08, Final residual = 4.93457e-10, No Iterations 1
 T goes from min(T) [0 0 0 0 0 0 0] -9.2361e-06 to max(T) [0 0 0 0 0 0 0] 0.936401

ExecutionTime = 17.57 s  ClockTime = 295 s

Time = 0.58
Courant Number mean: 0.20145 max: 0.516341
DILUPBiCG:  Solving for T, Initial residual = 0.00751478, Final residual = 5.63844e-10, No Iterations 3
DILUPBiCG:  Solving for T, Initial residual = 8.59962e-05, Final residual = 1.34504e-09, No Iterations 2
DILUPBiCG:  Solving for T, Initial residual = 2.06035e-06, Final residual = 4.63866e-11, No Iterations 2
DILUPBiCG:  Solving for T, Initial residual = 8.98698e-08, Final residual = 4.88696e-10, No Iterations 1
 T goes from min(T) [0 0 0 0 0 0 0] -1.03744e-05 to max(T) [0 0 0 0 0 0 0] 0.934706

ExecutionTime = 17.72 s  ClockTime = 298 s

Time = 0.585
Courant Number mean: 0.201041 max: 0.516288
DILUPBiCG:  Solving for T, Initial residual = 0.00752613, Final residual = 5.73083e-10, No Iterations 3
DILUPBiCG:  Solving for T, Initial residual = 8.68069e-05, Final residual = 1.38261e-09, No Iterations 2
DILUPBiCG:  Solving for T, Initial residual = 2.09126e-06, Final residual = 4.86815e-11, No Iterations 2
DILUPBiCG:  Solving for T, Initial residual = 9.16114e-08, Final residual = 5.01183e-10, No Iterations 1
 T goes from min(T) [0 0 0 0 0 0 0] -1.14268e-05 to max(T) [0 0 0 0 0 0 0] 0.93268

ExecutionTime = 17.88 s  ClockTime = 301 s

Time = 0.59
Courant Number mean: 0.200631 max: 0.516202
DILUPBiCG:  Solving for T, Initial residual = 0.00754341, Final residual = 5.83005e-10, No Iterations 3
DILUPBiCG:  Solving for T, Initial residual = 8.76427e-05, Final residual = 1.41979e-09, No Iterations 2
DILUPBiCG:  Solving for T, Initial residual = 2.1251e-06, Final residual = 5.1055e-11, No Iterations 2
DILUPBiCG:  Solving for T, Initial residual = 9.36559e-08, Final residual = 5.1394e-10, No Iterations 1
 T goes from min(T) [0 0 0 0 0 0 0] -1.23878e-05 to max(T) [0 0 0 0 0 0 0] 0.931794

ExecutionTime = 18.01 s  ClockTime = 303 s

Time = 0.595
Courant Number mean: 0.200219 max: 0.516083
DILUPBiCG:  Solving for T, Initial residual = 0.007561, Final residual = 5.9351e-10, No Iterations 3
DILUPBiCG:  Solving for T, Initial residual = 8.84508e-05, Final residual = 1.45734e-09, No Iterations 2
DILUPBiCG:  Solving for T, Initial residual = 2.16067e-06, Final residual = 5.35109e-11, No Iterations 2
DILUPBiCG:  Solving for T, Initial residual = 9.56927e-08, Final residual = 5.2607e-10, No Iterations 1
 T goes from min(T) [0 0 0 0 0 0 0] -1.32526e-05 to max(T) [0 0 0 0 0 0 0] 0.929639

ExecutionTime = 18.17 s  ClockTime = 305 s

Time = 0.6
Courant Number mean: 0.199802 max: 0.51593
DILUPBiCG:  Solving for T, Initial residual = 0.00757939, Final residual = 6.0439e-10, No Iterations 3
DILUPBiCG:  Solving for T, Initial residual = 8.92937e-05, Final residual = 1.49918e-09, No Iterations 2
DILUPBiCG:  Solving for T, Initial residual = 2.19962e-06, Final residual = 5.62409e-11, No Iterations 2
DILUPBiCG:  Solving for T, Initial residual = 9.75582e-08, Final residual = 5.3954e-10, No Iterations 1
 T goes from min(T) [0 0 0 0 0 0 0] -1.4017e-05 to max(T) [0 0 0 0 0 0 0] 0.926224

ExecutionTime = 18.3 s  ClockTime = 308 s

Time = 0.605
Courant Number mean: 0.199391 max: 0.515745
DILUPBiCG:  Solving for T, Initial residual = 0.00759853, Final residual = 6.15902e-10, No Iterations 3
DILUPBiCG:  Solving for T, Initial residual = 9.02302e-05, Final residual = 1.54192e-09, No Iterations 2
DILUPBiCG:  Solving for T, Initial residual = 2.23758e-06, Final residual = 5.92295e-11, No Iterations 2
DILUPBiCG:  Solving for T, Initial residual = 9.93831e-08, Final residual = 5.53622e-10, No Iterations 1
 T goes from min(T) [0 0 0 0 0 0 0] -1.46776e-05 to max(T) [0 0 0 0 0 0 0] 0.921895

ExecutionTime = 18.43 s  ClockTime = 310 s

Time = 0.61
Courant Number mean: 0.19898 max: 0.515526
DILUPBiCG:  Solving for T, Initial residual = 0.0076127, Final residual = 6.27683e-10, No Iterations 3
DILUPBiCG:  Solving for T, Initial residual = 9.13307e-05, Final residual = 1.58163e-09, No Iterations 2
DILUPBiCG:  Solving for T, Initial residual = 2.27855e-06, Final residual = 6.23804e-11, No Iterations 2
DILUPBiCG:  Solving for T, Initial residual = 1.01188e-07, Final residual = 5.6793e-10, No Iterations 1
 T goes from min(T) [0 0 0 0 0 0 0] -1.52318e-05 to max(T) [0 0 0 0 0 0 0] 0.921132

ExecutionTime = 18.56 s  ClockTime = 312 s

Time = 0.615
Courant Number mean: 0.198569 max: 0.515274
DILUPBiCG:  Solving for T, Initial residual = 0.00762621, Final residual = 6.4128e-10, No Iterations 3
DILUPBiCG:  Solving for T, Initial residual = 9.22839e-05, Final residual = 1.62566e-09, No Iterations 2
DILUPBiCG:  Solving for T, Initial residual = 2.31905e-06, Final residual = 6.55755e-11, No Iterations 2
DILUPBiCG:  Solving for T, Initial residual = 1.03035e-07, Final residual = 5.84013e-10, No Iterations 1
 T goes from min(T) [0 0 0 0 0 0 0] -1.56778e-05 to max(T) [0 0 0 0 0 0 0] 0.922791

ExecutionTime = 18.7 s  ClockTime = 314 s

Time = 0.62
Courant Number mean: 0.198156 max: 0.51499
DILUPBiCG:  Solving for T, Initial residual = 0.00763818, Final residual = 6.55341e-10, No Iterations 3
DILUPBiCG:  Solving for T, Initial residual = 9.32212e-05, Final residual = 1.66813e-09, No Iterations 2
DILUPBiCG:  Solving for T, Initial residual = 2.35407e-06, Final residual = 6.92434e-11, No Iterations 2
DILUPBiCG:  Solving for T, Initial residual = 1.05077e-07, Final residual = 6.00648e-10, No Iterations 1
 T goes from min(T) [0 0 0 0 0 0 0] -1.61955e-05 to max(T) [0 0 0 0 0 0 0] 0.923187

ExecutionTime = 18.83 s  ClockTime = 317 s

Time = 0.625
Courant Number mean: 0.197741 max: 0.514847
DILUPBiCG:  Solving for T, Initial residual = 0.00764915, Final residual = 6.70881e-10, No Iterations 3
DILUPBiCG:  Solving for T, Initial residual = 9.41737e-05, Final residual = 1.70849e-09, No Iterations 2
DILUPBiCG:  Solving for T, Initial residual = 2.39195e-06, Final residual = 7.31598e-11, No Iterations 2
DILUPBiCG:  Solving for T, Initial residual = 1.07373e-07, Final residual = 6.1834e-10, No Iterations 1
 T goes from min(T) [0 0 0 0 0 0 0] -1.73437e-05 to max(T) [0 0 0 0 0 0 0] 0.922321

ExecutionTime = 18.96 s  ClockTime = 319 s

Time = 0.63
Courant Number mean: 0.197326 max: 0.514707
DILUPBiCG:  Solving for T, Initial residual = 0.00766394, Final residual = 6.87375e-10, No Iterations 3
DILUPBiCG:  Solving for T, Initial residual = 9.50926e-05, Final residual = 1.75017e-09, No Iterations 2
DILUPBiCG:  Solving for T, Initial residual = 2.43261e-06, Final residual = 7.70733e-11, No Iterations 2
DILUPBiCG:  Solving for T, Initial residual = 1.09792e-07, Final residual = 6.34828e-10, No Iterations 1
 T goes from min(T) [0 0 0 0 0 0 0] -1.83081e-05 to max(T) [0 0 0 0 0 0 0] 0.921691

ExecutionTime = 19.08 s  ClockTime = 321 s

Time = 0.635
Courant Number mean: 0.196907 max: 0.514533
DILUPBiCG:  Solving for T, Initial residual = 0.00767931, Final residual = 7.04351e-10, No Iterations 3
DILUPBiCG:  Solving for T, Initial residual = 9.59458e-05, Final residual = 1.79604e-09, No Iterations 2
DILUPBiCG:  Solving for T, Initial residual = 2.47634e-06, Final residual = 8.11115e-11, No Iterations 2
DILUPBiCG:  Solving for T, Initial residual = 1.12e-07, Final residual = 6.53747e-10, No Iterations 1
 T goes from min(T) [0 0 0 0 0 0 0] -1.90889e-05 to max(T) [0 0 0 0 0 0 0] 0.924111

ExecutionTime = 19.2 s  ClockTime = 323 s

Time = 0.64
Courant Number mean: 0.196486 max: 0.514327
DILUPBiCG:  Solving for T, Initial residual = 0.00769263, Final residual = 7.22285e-10, No Iterations 3
DILUPBiCG:  Solving for T, Initial residual = 9.69442e-05, Final residual = 1.83872e-09, No Iterations 2
DILUPBiCG:  Solving for T, Initial residual = 2.51795e-06, Final residual = 8.54664e-11, No Iterations 2
DILUPBiCG:  Solving for T, Initial residual = 1.14212e-07, Final residual = 6.74447e-10, No Iterations 1
 T goes from min(T) [0 0 0 0 0 0 0] -1.96881e-05 to max(T) [0 0 0 0 0 0 0] 0.925557

ExecutionTime = 19.34 s  ClockTime = 325 s

Time = 0.645
Courant Number mean: 0.196066 max: 0.514087
DILUPBiCG:  Solving for T, Initial residual = 0.00770914, Final residual = 7.41557e-10, No Iterations 3
DILUPBiCG:  Solving for T, Initial residual = 9.80727e-05, Final residual = 1.88062e-09, No Iterations 2
DILUPBiCG:  Solving for T, Initial residual = 2.56437e-06, Final residual = 8.99498e-11, No Iterations 2
DILUPBiCG:  Solving for T, Initial residual = 1.16365e-07, Final residual = 6.9288e-10, No Iterations 1
 T goes from min(T) [0 0 0 0 0 0 0] -2.01091e-05 to max(T) [0 0 0 0 0 0 0] 0.926032

ExecutionTime = 19.48 s  ClockTime = 328 s

Time = 0.65
Courant Number mean: 0.195648 max: 0.513814
DILUPBiCG:  Solving for T, Initial residual = 0.00771978, Final residual = 7.61267e-10, No Iterations 3
DILUPBiCG:  Solving for T, Initial residual = 9.90717e-05, Final residual = 1.93301e-09, No Iterations 2
DILUPBiCG:  Solving for T, Initial residual = 2.60912e-06, Final residual = 9.41837e-11, No Iterations 2
DILUPBiCG:  Solving for T, Initial residual = 1.1855e-07, Final residual = 7.15813e-10, No Iterations 1
 T goes from min(T) [0 0 0 0 0 0 0] -2.04063e-05 to max(T) [0 0 0 0 0 0 0] 0.92554

ExecutionTime = 19.6 s  ClockTime = 330 s

Time = 0.655
Courant Number mean: 0.195232 max: 0.513532
DILUPBiCG:  Solving for T, Initial residual = 0.0077295, Final residual = 7.8259e-10, No Iterations 3
DILUPBiCG:  Solving for T, Initial residual = 0.000100082, Final residual = 1.98382e-09, No Iterations 2
[...]

ExecutionTime = 160.89 s  ClockTime = 1999 s

Time = 5.84
Courant Number mean: 0.20603 max: 0.481355
DILUPBiCG:  Solving for T, Initial residual = 0.00763533, Final residual = 2.78201e-10, No Iterations 3
DILUPBiCG:  Solving for T, Initial residual = 0.00010301, Final residual = 2.06321e-09, No Iterations 2
DILUPBiCG:  Solving for T, Initial residual = 3.17629e-06, Final residual = 2.96002e-11, No Iterations 2
DILUPBiCG:  Solving for T, Initial residual = 1.62052e-07, Final residual = 1.72204e-09, No Iterations 1
 T goes from min(T) [0 0 0 0 0 0 0] -0.0991849 to max(T) [0 0 0 0 0 0 0] 0.609649

ExecutionTime = 161.03 s  ClockTime = 2000 s

Time = 5.845
Courant Number mean: 0.20619 max: 0.480411
DILUPBiCG:  Solving for T, Initial residual = 0.00766048, Final residual = 2.95471e-10, No Iterations 3
DILUPBiCG:  Solving for T, Initial residual = 0.000103622, Final residual = 1.69361e-09, No Iterations 2
DILUPBiCG:  Solving for T, Initial residual = 3.2032e-06, Final residual = 2.97318e-11, No Iterations 2
DILUPBiCG:  Solving for T, Initial residual = 1.64035e-07, Final residual = 1.80288e-09, No Iterations 1
 T goes from min(T) [0 0 0 0 0 0 0] -0.0995356 to max(T) [0 0 0 0 0 0 0] 0.60963

ExecutionTime = 161.16 s  ClockTime = 2001 s

Time = 5.85
Courant Number mean: 0.206353 max: 0.479611
DILUPBiCG:  Solving for T, Initial residual = 0.00768684, Final residual = 3.14479e-10, No Iterations 3
DILUPBiCG:  Solving for T, Initial residual = 0.000104168, Final residual = 1.50381e-09, No Iterations 2
DILUPBiCG:  Solving for T, Initial residual = 3.2351e-06, Final residual = 2.98514e-11, No Iterations 2
DILUPBiCG:  Solving for T, Initial residual = 1.656e-07, Final residual = 1.8833e-09, No Iterations 1
 T goes from min(T) [0 0 0 0 0 0 0] -0.0996184 to max(T) [0 0 0 0 0 0 0] 0.609528

ExecutionTime = 161.29 s  ClockTime = 2002 s

Time = 5.855
Courant Number mean: 0.206516 max: 0.478791
DILUPBiCG:  Solving for T, Initial residual = 0.00771995, Final residual = 3.31401e-10, No Iterations 3
DILUPBiCG:  Solving for T, Initial residual = 0.000104766, Final residual = 1.39026e-09, No Iterations 2
DILUPBiCG:  Solving for T, Initial residual = 3.26958e-06, Final residual = 2.99515e-11, No Iterations 2
DILUPBiCG:  Solving for T, Initial residual = 1.67108e-07, Final residual = 1.93979e-09, No Iterations 1
 T goes from min(T) [0 0 0 0 0 0 0] -0.0994359 to max(T) [0 0 0 0 0 0 0] 0.609344

ExecutionTime = 161.42 s  ClockTime = 2002 s

Time = 5.86
Courant Number mean: 0.206677 max: 0.477942
DILUPBiCG:  Solving for T, Initial residual = 0.00775234, Final residual = 3.44573e-10, No Iterations 3
DILUPBiCG:  Solving for T, Initial residual = 0.000105284, Final residual = 1.31602e-09, No Iterations 2
DILUPBiCG:  Solving for T, Initial residual = 3.30252e-06, Final residual = 3.00389e-11, No Iterations 2
DILUPBiCG:  Solving for T, Initial residual = 1.68637e-07, Final residual = 1.95697e-09, No Iterations 1
 T goes from min(T) [0 0 0 0 0 0 0] -0.0989928 to max(T) [0 0 0 0 0 0 0] 0.609078

ExecutionTime = 161.55 s  ClockTime = 2003 s

Time = 5.865
Courant Number mean: 0.206833 max: 0.477065
DILUPBiCG:  Solving for T, Initial residual = 0.00777596, Final residual = 3.51986e-10, No Iterations 3
DILUPBiCG:  Solving for T, Initial residual = 0.000105871, Final residual = 1.26461e-09, No Iterations 2
DILUPBiCG:  Solving for T, Initial residual = 3.32646e-06, Final residual = 3.01141e-11, No Iterations 2
DILUPBiCG:  Solving for T, Initial residual = 1.70327e-07, Final residual = 1.94702e-09, No Iterations 1
 T goes from min(T) [0 0 0 0 0 0 0] -0.0982951 to max(T) [0 0 0 0 0 0 0] 0.609203

ExecutionTime = 161.69 s  ClockTime = 2004 s

Time = 5.87
Courant Number mean: 0.206986 max: 0.47616
DILUPBiCG:  Solving for T, Initial residual = 0.0078033, Final residual = 3.51924e-10, No Iterations 3
DILUPBiCG:  Solving for T, Initial residual = 0.000106397, Final residual = 1.23731e-09, No Iterations 2
DILUPBiCG:  Solving for T, Initial residual = 3.35799e-06, Final residual = 3.02417e-11, No Iterations 2
DILUPBiCG:  Solving for T, Initial residual = 1.71963e-07, Final residual = 1.88599e-09, No Iterations 1
 T goes from min(T) [0 0 0 0 0 0 0] -0.0973501 to max(T) [0 0 0 0 0 0 0] 0.609273

ExecutionTime = 161.83 s  ClockTime = 2005 s

Time = 5.875
Courant Number mean: 0.207137 max: 0.475227
DILUPBiCG:  Solving for T, Initial residual = 0.00782489, Final residual = 3.4343e-10, No Iterations 3
DILUPBiCG:  Solving for T, Initial residual = 0.000106998, Final residual = 1.21963e-09, No Iterations 2
DILUPBiCG:  Solving for T, Initial residual = 3.38757e-06, Final residual = 3.03552e-11, No Iterations 2
DILUPBiCG:  Solving for T, Initial residual = 1.73467e-07, Final residual = 1.7866e-09, No Iterations 1
 T goes from min(T) [0 0 0 0 0 0 0] -0.0976527 to max(T) [0 0 0 0 0 0 0] 0.609277

ExecutionTime = 161.97 s  ClockTime = 2006 s

Time = 5.88
Courant Number mean: 0.207288 max: 0.474266
DILUPBiCG:  Solving for T, Initial residual = 0.00784829, Final residual = 3.26872e-10, No Iterations 3
DILUPBiCG:  Solving for T, Initial residual = 0.000107635, Final residual = 1.20682e-09, No Iterations 2
DILUPBiCG:  Solving for T, Initial residual = 3.41256e-06, Final residual = 3.04843e-11, No Iterations 2
DILUPBiCG:  Solving for T, Initial residual = 1.75214e-07, Final residual = 1.66326e-09, No Iterations 1
 T goes from min(T) [0 0 0 0 0 0 0] -0.0983059 to max(T) [0 0 0 0 0 0 0] 0.609217

ExecutionTime = 162.1 s  ClockTime = 2007 s

Time = 5.885
Courant Number mean: 0.207438 max: 0.473277
DILUPBiCG:  Solving for T, Initial residual = 0.00787651, Final residual = 3.08276e-10, No Iterations 3
DILUPBiCG:  Solving for T, Initial residual = 0.00010814, Final residual = 1.19657e-09, No Iterations 2
DILUPBiCG:  Solving for T, Initial residual = 3.43894e-06, Final residual = 3.06474e-11, No Iterations 2
DILUPBiCG:  Solving for T, Initial residual = 1.76757e-07, Final residual = 1.51609e-09, No Iterations 1
 T goes from min(T) [0 0 0 0 0 0 0] -0.098693 to max(T) [0 0 0 0 0 0 0] 0.609096

ExecutionTime = 162.23 s  ClockTime = 2008 s

Time = 5.89
Courant Number mean: 0.207589 max: 0.472261
DILUPBiCG:  Solving for T, Initial residual = 0.00790506, Final residual = 2.85574e-10, No Iterations 3
DILUPBiCG:  Solving for T, Initial residual = 0.000108641, Final residual = 1.18654e-09, No Iterations 2
DILUPBiCG:  Solving for T, Initial residual = 3.46462e-06, Final residual = 3.08416e-11, No Iterations 2
DILUPBiCG:  Solving for T, Initial residual = 1.77965e-07, Final residual = 1.36487e-09, No Iterations 1
 T goes from min(T) [0 0 0 0 0 0 0] -0.0988144 to max(T) [0 0 0 0 0 0 0] 0.608914

ExecutionTime = 162.37 s  ClockTime = 2009 s

Time = 5.895
Courant Number mean: 0.207739 max: 0.471218
DILUPBiCG:  Solving for T, Initial residual = 0.0079321, Final residual = 2.62304e-10, No Iterations 3
DILUPBiCG:  Solving for T, Initial residual = 0.000109087, Final residual = 1.17442e-09, No Iterations 2
DILUPBiCG:  Solving for T, Initial residual = 3.49839e-06, Final residual = 3.10567e-11, No Iterations 2
DILUPBiCG:  Solving for T, Initial residual = 1.78797e-07, Final residual = 1.20182e-09, No Iterations 1
 T goes from min(T) [0 0 0 0 0 0 0] -0.0989705 to max(T) [0 0 0 0 0 0 0] 0.608674

ExecutionTime = 162.5 s  ClockTime = 2010 s

Time = 5.9
Courant Number mean: 0.207884 max: 0.470149
DILUPBiCG:  Solving for T, Initial residual = 0.00795675, Final residual = 2.41788e-10, No Iterations 3
DILUPBiCG:  Solving for T, Initial residual = 0.000109598, Final residual = 1.1576e-09, No Iterations 2
DILUPBiCG:  Solving for T, Initial residual = 3.51718e-06, Final residual = 3.12127e-11, No Iterations 2
DILUPBiCG:  Solving for T, Initial residual = 1.79622e-07, Final residual = 1.04526e-09, No Iterations 1
 T goes from min(T) [0 0 0 0 0 0 0] -0.0990991 to max(T) [0 0 0 0 0 0 0] 0.608376

ExecutionTime = 162.63 s  ClockTime = 2011 s

Time = 5.905
Courant Number mean: 0.208026 max: 0.469292
DILUPBiCG:  Solving for T, Initial residual = 0.00798052, Final residual = 2.26561e-10, No Iterations 3
DILUPBiCG:  Solving for T, Initial residual = 0.000110368, Final residual = 1.13414e-09, No Iterations 2
DILUPBiCG:  Solving for T, Initial residual = 3.53408e-06, Final residual = 3.1349e-11, No Iterations 2
DILUPBiCG:  Solving for T, Initial residual = 1.80521e-07, Final residual = 9.85219e-10, No Iterations 1
 T goes from min(T) [0 0 0 0 0 0 0] -0.0990394 to max(T) [0 0 0 0 0 0 0] 0.608269

ExecutionTime = 162.77 s  ClockTime = 2012 s

Time = 5.91
Courant Number mean: 0.208166 max: 0.46844
DILUPBiCG:  Solving for T, Initial residual = 0.00800936, Final residual = 2.1655e-10, No Iterations 3
DILUPBiCG:  Solving for T, Initial residual = 0.000111085, Final residual = 1.10299e-09, No Iterations 2
DILUPBiCG:  Solving for T, Initial residual = 3.5484e-06, Final residual = 3.14818e-11, No Iterations 2
DILUPBiCG:  Solving for T, Initial residual = 1.81586e-07, Final residual = 1.08747e-09, No Iterations 1
 T goes from min(T) [0 0 0 0 0 0 0] -0.0987966 to max(T) [0 0 0 0 0 0 0] 0.608652

ExecutionTime = 162.91 s  ClockTime = 2013 s

Time = 5.915
Courant Number mean: 0.208302 max: 0.46756
DILUPBiCG:  Solving for T, Initial residual = 0.00803966, Final residual = 2.10734e-10, No Iterations 3
DILUPBiCG:  Solving for T, Initial residual = 0.00011165, Final residual = 1.07016e-09, No Iterations 2
DILUPBiCG:  Solving for T, Initial residual = 3.56023e-06, Final residual = 3.16718e-11, No Iterations 2
DILUPBiCG:  Solving for T, Initial residual = 1.82562e-07, Final residual = 1.16634e-09, No Iterations 1
 T goes from min(T) [0 0 0 0 0 0 0] -0.098377 to max(T) [0 0 0 0 0 0 0] 0.608975

ExecutionTime = 163.04 s  ClockTime = 2014 s

Time = 5.92
Courant Number mean: 0.208436 max: 0.466654
DILUPBiCG:  Solving for T, Initial residual = 0.00806546, Final residual = 2.07621e-10, No Iterations 3
DILUPBiCG:  Solving for T, Initial residual = 0.000112064, Final residual = 1.03202e-09, No Iterations 2
DILUPBiCG:  Solving for T, Initial residual = 3.58111e-06, Final residual = 3.19865e-11, No Iterations 2
DILUPBiCG:  Solving for T, Initial residual = 1.83537e-07, Final residual = 1.21879e-09, No Iterations 1
 T goes from min(T) [0 0 0 0 0 0 0] -0.0977876 to max(T) [0 0 0 0 0 0 0] 0.609241

ExecutionTime = 163.21 s  ClockTime = 2015 s

Time = 5.925
Courant Number mean: 0.208569 max: 0.465719
DILUPBiCG:  Solving for T, Initial residual = 0.00808924, Final residual = 2.05496e-10, No Iterations 3
DILUPBiCG:  Solving for T, Initial residual = 0.000112392, Final residual = 9.8801e-10, No Iterations 2
DILUPBiCG:  Solving for T, Initial residual = 3.61123e-06, Final residual = 3.24501e-11, No Iterations 2
DILUPBiCG:  Solving for T, Initial residual = 1.84385e-07, Final residual = 1.26291e-09, No Iterations 1
 T goes from min(T) [0 0 0 0 0 0 0] -0.0970358 to max(T) [0 0 0 0 0 0 0] 0.60945

ExecutionTime = 163.39 s  ClockTime = 2016 s

Time = 5.93
Courant Number mean: 0.208703 max: 0.464758
DILUPBiCG:  Solving for T, Initial residual = 0.00810826, Final residual = 2.03972e-10, No Iterations 3
DILUPBiCG:  Solving for T, Initial residual = 0.000112856, Final residual = 9.39257e-10, No Iterations 2
DILUPBiCG:  Solving for T, Initial residual = 3.63056e-06, Final residual = 3.3015e-11, No Iterations 2
DILUPBiCG:  Solving for T, Initial residual = 1.85078e-07, Final residual = 1.29019e-09, No Iterations 1
 T goes from min(T) [0 0 0 0 0 0 0] -0.0976322 to max(T) [0 0 0 0 0 0 0] 0.609604

ExecutionTime = 163.52 s  ClockTime = 2017 s

Time = 5.935
Courant Number mean: 0.208834 max: 0.46377
DILUPBiCG:  Solving for T, Initial residual = 0.00813399, Final residual = 2.02678e-10, No Iterations 3
DILUPBiCG:  Solving for T, Initial residual = 0.000113397, Final residual = 8.88474e-10, No Iterations 2
DILUPBiCG:  Solving for T, Initial residual = 3.64332e-06, Final residual = 3.3797e-11, No Iterations 2
DILUPBiCG:  Solving for T, Initial residual = 1.85331e-07, Final residual = 1.29497e-09, No Iterations 1
 T goes from min(T) [0 0 0 0 0 0 0] -0.0980847 to max(T) [0 0 0 0 0 0 0] 0.609705

ExecutionTime = 163.65 s  ClockTime = 2018 s

Time = 5.94
Courant Number mean: 0.208964 max: 0.462755
DILUPBiCG:  Solving for T, Initial residual = 0.00816156, Final residual = 2.01648e-10, No Iterations 3
DILUPBiCG:  Solving for T, Initial residual = 0.000114231, Final residual = 8.3613e-10, No Iterations 2
DILUPBiCG:  Solving for T, Initial residual = 3.64915e-06, Final residual = 3.45899e-11, No Iterations 2
DILUPBiCG:  Solving for T, Initial residual = 1.84976e-07, Final residual = 1.28003e-09, No Iterations 1
 T goes from min(T) [0 0 0 0 0 0 0] -0.0983469 to max(T) [0 0 0 0 0 0 0] 0.609754

ExecutionTime = 163.81 s  ClockTime = 2019 s

Time = 5.945
Courant Number mean: 0.20909 max: 0.461714
DILUPBiCG:  Solving for T, Initial residual = 0.00819245, Final residual = 2.00868e-10, No Iterations 3
DILUPBiCG:  Solving for T, Initial residual = 0.000114988, Final residual = 8.17543e-10, No Iterations 2
DILUPBiCG:  Solving for T, Initial residual = 3.65625e-06, Final residual = 3.5363e-11, No Iterations 2
DILUPBiCG:  Solving for T, Initial residual = 1.84939e-07, Final residual = 1.24982e-09, No Iterations 1
 T goes from min(T) [0 0 0 0 0 0 0] -0.0984221 to max(T) [0 0 0 0 0 0 0] 0.609753

ExecutionTime = 163.98 s  ClockTime = 2020 s

Time = 5.95
Courant Number mean: 0.209213 max: 0.460646
DILUPBiCG:  Solving for T, Initial residual = 0.00822458, Final residual = 2.0088e-10, No Iterations 3
DILUPBiCG:  Solving for T, Initial residual = 0.0001155, Final residual = 8.17631e-10, No Iterations 2
DILUPBiCG:  Solving for T, Initial residual = 3.66919e-06, Final residual = 3.61632e-11, No Iterations 2
DILUPBiCG:  Solving for T, Initial residual = 1.85135e-07, Final residual = 1.20914e-09, No Iterations 1
 T goes from min(T) [0 0 0 0 0 0 0] -0.0983145 to max(T) [0 0 0 0 0 0 0] 0.609703

ExecutionTime = 164.11 s  ClockTime = 2021 s

Time = 5.955
Courant Number mean: 0.209335 max: 0.459553
DILUPBiCG:  Solving for T, Initial residual = 0.00824941, Final residual = 2.00738e-10, No Iterations 3
DILUPBiCG:  Solving for T, Initial residual = 0.000115766, Final residual = 8.18927e-10, No Iterations 2
DILUPBiCG:  Solving for T, Initial residual = 3.68769e-06, Final residual = 3.68385e-11, No Iterations 2
DILUPBiCG:  Solving for T, Initial residual = 1.8562e-07, Final residual = 1.17647e-09, No Iterations 1
 T goes from min(T) [0 0 0 0 0 0 0] -0.0982363 to max(T) [0 0 0 0 0 0 0] 0.609606

ExecutionTime = 164.24 s  ClockTime = 2022 s

Time = 5.96
Courant Number mean: 0.209453 max: 0.458435
DILUPBiCG:  Solving for T, Initial residual = 0.00827399, Final residual = 2.00435e-10, No Iterations 3
DILUPBiCG:  Solving for T, Initial residual = 0.000115828, Final residual = 8.25397e-10, No Iterations 2
DILUPBiCG:  Solving for T, Initial residual = 3.69941e-06, Final residual = 3.72889e-11, No Iterations 2
DILUPBiCG:  Solving for T, Initial residual = 1.86029e-07, Final residual = 1.16138e-09, No Iterations 1
 T goes from min(T) [0 0 0 0 0 0 0] -0.098466 to max(T) [0 0 0 0 0 0 0] 0.609464

ExecutionTime = 164.37 s  ClockTime = 2023 s

Time = 5.965
Courant Number mean: 0.209569 max: 0.457404
DILUPBiCG:  Solving for T, Initial residual = 0.00829776, Final residual = 2.00235e-10, No Iterations 3
DILUPBiCG:  Solving for T, Initial residual = 0.000116086, Final residual = 8.33588e-10, No Iterations 2
DILUPBiCG:  Solving for T, Initial residual = 3.70528e-06, Final residual = 3.74572e-11, No Iterations 2
DILUPBiCG:  Solving for T, Initial residual = 1.85862e-07, Final residual = 1.14311e-09, No Iterations 1
 T goes from min(T) [0 0 0 0 0 0 0] -0.0985773 to max(T) [0 0 0 0 0 0 0] 0.609278

ExecutionTime = 164.51 s  ClockTime = 2024 s

Time = 5.97
Courant Number mean: 0.209685 max: 0.4565
DILUPBiCG:  Solving for T, Initial residual = 0.00832193, Final residual = 2.0009e-10, No Iterations 3
DILUPBiCG:  Solving for T, Initial residual = 0.000116474, Final residual = 8.45683e-10, No Iterations 2
DILUPBiCG:  Solving for T, Initial residual = 3.71515e-06, Final residual = 3.74858e-11, No Iterations 2
DILUPBiCG:  Solving for T, Initial residual = 1.85693e-07, Final residual = 1.12742e-09, No Iterations 1
 T goes from min(T) [0 0 0 0 0 0 0] -0.0985753 to max(T) [0 0 0 0 0 0 0] 0.60905

ExecutionTime = 164.65 s  ClockTime = 2025 s

Time = 5.975
Courant Number mean: 0.209799 max: 0.45557
DILUPBiCG:  Solving for T, Initial residual = 0.00834856, Final residual = 2.00009e-10, No Iterations 3
DILUPBiCG:  Solving for T, Initial residual = 0.00011709, Final residual = 8.66923e-10, No Iterations 2
DILUPBiCG:  Solving for T, Initial residual = 3.72177e-06, Final residual = 3.7478e-11, No Iterations 2
DILUPBiCG:  Solving for T, Initial residual = 1.85077e-07, Final residual = 1.11008e-09, No Iterations 1
 T goes from min(T) [0 0 0 0 0 0 0] -0.0984652 to max(T) [0 0 0 0 0 0 0] 0.608887

ExecutionTime = 164.78 s  ClockTime = 2026 s

Time = 5.98
Courant Number mean: 0.209909 max: 0.454612
DILUPBiCG:  Solving for T, Initial residual = 0.00837212, Final residual = 2.003e-10, No Iterations 3
DILUPBiCG:  Solving for T, Initial residual = 0.000117962, Final residual = 9.03729e-10, No Iterations 2
DILUPBiCG:  Solving for T, Initial residual = 3.72338e-06, Final residual = 3.74742e-11, No Iterations 2
DILUPBiCG:  Solving for T, Initial residual = 1.84444e-07, Final residual = 1.09125e-09, No Iterations 1
 T goes from min(T) [0 0 0 0 0 0 0] -0.0982528 to max(T) [0 0 0 0 0 0 0] 0.609078

ExecutionTime = 164.91 s  ClockTime = 2027 s

Time = 5.985
Courant Number mean: 0.210016 max: 0.453629
DILUPBiCG:  Solving for T, Initial residual = 0.00839928, Final residual = 2.00904e-10, No Iterations 3
DILUPBiCG:  Solving for T, Initial residual = 0.000118573, Final residual = 9.55738e-10, No Iterations 2
DILUPBiCG:  Solving for T, Initial residual = 3.72566e-06, Final residual = 3.73963e-11, No Iterations 2
DILUPBiCG:  Solving for T, Initial residual = 1.83979e-07, Final residual = 1.07333e-09, No Iterations 1
 T goes from min(T) [0 0 0 0 0 0 0] -0.097944 to max(T) [0 0 0 0 0 0 0] 0.609237

ExecutionTime = 165.05 s  ClockTime = 2028 s

Time = 5.99
Courant Number mean: 0.210121 max: 0.45262
DILUPBiCG:  Solving for T, Initial residual = 0.00841835, Final residual = 2.01708e-10, No Iterations 3
DILUPBiCG:  Solving for T, Initial residual = 0.000118801, Final residual = 1.04358e-09, No Iterations 2
DILUPBiCG:  Solving for T, Initial residual = 3.72205e-06, Final residual = 3.73206e-11, No Iterations 2
DILUPBiCG:  Solving for T, Initial residual = 1.83643e-07, Final residual = 1.05613e-09, No Iterations 1
 T goes from min(T) [0 0 0 0 0 0 0] -0.0975449 to max(T) [0 0 0 0 0 0 0] 0.609365

ExecutionTime = 165.19 s  ClockTime = 2029 s

Time = 5.995
Courant Number mean: 0.210221 max: 0.451585
DILUPBiCG:  Solving for T, Initial residual = 0.00844472, Final residual = 2.037e-10, No Iterations 3
DILUPBiCG:  Solving for T, Initial residual = 0.000119083, Final residual = 1.23622e-09, No Iterations 2
DILUPBiCG:  Solving for T, Initial residual = 3.72208e-06, Final residual = 3.73736e-11, No Iterations 2
DILUPBiCG:  Solving for T, Initial residual = 1.83425e-07, Final residual = 1.03727e-09, No Iterations 1
 T goes from min(T) [0 0 0 0 0 0 0] -0.0970617 to max(T) [0 0 0 0 0 0 0] 0.609463

ExecutionTime = 165.32 s  ClockTime = 2030 s

Time = 6
Courant Number mean: 0.210317 max: 0.450525
DILUPBiCG:  Solving for T, Initial residual = 0.00847048, Final residual = 2.06345e-10, No Iterations 3
DILUPBiCG:  Solving for T, Initial residual = 0.000119523, Final residual = 1.97222e-09, No Iterations 2
DILUPBiCG:  Solving for T, Initial residual = 3.71987e-06, Final residual = 3.75109e-11, No Iterations 2
DILUPBiCG:  Solving for T, Initial residual = 1.82885e-07, Final residual = 1.01716e-09, No Iterations 1
 T goes from min(T) [0 0 0 0 0 0 0] -0.097425 to max(T) [0 0 0 0 0 0 0] 0.609533

ExecutionTime = 165.45 s  ClockTime = 2031 s

End

