/*---------------------------------------------------------------------------*\
| =========                 |                                                 |
| \\      /  F ield         | OpenFOAM: The Open Source CFD Toolbox           |
|  \\    /   O peration     | Version:  dev                                   |
|   \\  /    A nd           | Web:      www.OpenFOAM.org                      |
|    \\/     M anipulation  |                                                 |
\*---------------------------------------------------------------------------*/
Build  : dev-90f39e0d894d
Exec   : scalarDeformationWithGhosts implicit -case orthogonal/240x120/c5_implicit
Date   : May 23 2017
Time   : 20:31:29
Host   : "sws02hw.private.rdg.ac.uk"
PID    : 22937
Case   : orthogonal/240x120/c5_implicit
nProcs : 1
sigFpe : Enabling floating point exception trapping (FOAM_SIGFPE).
fileModificationChecking : Monitoring run-time modified files using timeStampMaster (fileModificationSkew 10)
allowSystemOperations : Allowing user-supplied system call operations

// * * * * * * * * * * * * * * * * * * * * * * * * * * * * * * * * * * * * * //
Create time

Create mesh for time = 0

Reading field T

Reading fields phi (compulsory), U and Uf (optional)

Calculating owner stencils
Calculating neighbour stencils

Calculating scalar transport

Courant Number mean: 1.87268 max: 3.67985
Time = 0.025
Courant Number mean: 1.87254 max: 3.67968
DILUPBiCG:  Solving for T, Initial residual = 0.0336656, Final residual = 5.45437e-09, No Iterations 6
DILUPBiCG:  Solving for T, Initial residual = 0.000603641, Final residual = 3.49495e-09, No Iterations 5
DILUPBiCG:  Solving for T, Initial residual = 4.20878e-06, Final residual = 1.6966e-09, No Iterations 3
DILUPBiCG:  Solving for T, Initial residual = 8.67508e-08, Final residual = 8.08527e-09, No Iterations 1
 T goes from min(T) [0 0 0 0 0 0 0] 8.84898e-21 to max(T) [0 0 0 0 0 0 0] 0.953693

ExecutionTime = 7.76 s  ClockTime = 155 s

Time = 0.05
Courant Number mean: 1.8721 max: 3.67872
DILUPBiCG:  Solving for T, Initial residual = 0.0336815, Final residual = 6.36182e-10, No Iterations 7
DILUPBiCG:  Solving for T, Initial residual = 0.000606205, Final residual = 2.36758e-09, No Iterations 5
DILUPBiCG:  Solving for T, Initial residual = 4.32238e-06, Final residual = 2.07471e-09, No Iterations 3
DILUPBiCG:  Solving for T, Initial residual = 9.18971e-08, Final residual = 8.11985e-09, No Iterations 1
 T goes from min(T) [0 0 0 0 0 0 0] 8.59873e-21 to max(T) [0 0 0 0 0 0 0] 0.954564

ExecutionTime = 8.33 s  ClockTime = 167 s

Time = 0.075
Courant Number mean: 1.87154 max: 3.67719
DILUPBiCG:  Solving for T, Initial residual = 0.0337315, Final residual = 4.79424e-10, No Iterations 7
DILUPBiCG:  Solving for T, Initial residual = 0.000612962, Final residual = 1.70067e-09, No Iterations 5
DILUPBiCG:  Solving for T, Initial residual = 4.49085e-06, Final residual = 2.62936e-09, No Iterations 3
DILUPBiCG:  Solving for T, Initial residual = 9.91738e-08, Final residual = 8.21508e-09, No Iterations 1
 T goes from min(T) [0 0 0 0 0 0 0] 8.74922e-21 to max(T) [0 0 0 0 0 0 0] 0.954802

ExecutionTime = 8.88 s  ClockTime = 178 s

Time = 0.1
Courant Number mean: 1.87087 max: 3.67509
DILUPBiCG:  Solving for T, Initial residual = 0.0337841, Final residual = 3.3416e-10, No Iterations 7
DILUPBiCG:  Solving for T, Initial residual = 0.000622247, Final residual = 1.27097e-09, No Iterations 5
DILUPBiCG:  Solving for T, Initial residual = 4.7029e-06, Final residual = 3.12823e-09, No Iterations 3
DILUPBiCG:  Solving for T, Initial residual = 1.07793e-07, Final residual = 8.288e-09, No Iterations 1
 T goes from min(T) [0 0 0 0 0 0 0] 9.32532e-21 to max(T) [0 0 0 0 0 0 0] 0.955111

ExecutionTime = 9.42 s  ClockTime = 190 s

Time = 0.125
Courant Number mean: 1.8699 max: 3.6722
DILUPBiCG:  Solving for T, Initial residual = 0.0338317, Final residual = 2.38522e-10, No Iterations 7
DILUPBiCG:  Solving for T, Initial residual = 0.000632778, Final residual = 9.86617e-09, No Iterations 4
DILUPBiCG:  Solving for T, Initial residual = 4.95355e-06, Final residual = 3.16987e-09, No Iterations 3
DILUPBiCG:  Solving for T, Initial residual = 1.17998e-07, Final residual = 8.37194e-09, No Iterations 1
 T goes from min(T) [0 0 0 0 0 0 0] 9.05318e-21 to max(T) [0 0 0 0 0 0 0] 0.955427

ExecutionTime = 10 s  ClockTime = 202 s

Time = 0.15
Courant Number mean: 1.86864 max: 3.66898
DILUPBiCG:  Solving for T, Initial residual = 0.0338686, Final residual = 2.03579e-10, No Iterations 7
DILUPBiCG:  Solving for T, Initial residual = 0.000643937, Final residual = 9.59806e-09, No Iterations 4
DILUPBiCG:  Solving for T, Initial residual = 5.24277e-06, Final residual = 2.75997e-09, No Iterations 3
DILUPBiCG:  Solving for T, Initial residual = 1.29836e-07, Final residual = 8.47745e-09, No Iterations 1
 T goes from min(T) [0 0 0 0 0 0 0] 8.75171e-21 to max(T) [0 0 0 0 0 0 0] 0.956326

ExecutionTime = 10.52 s  ClockTime = 213 s

Time = 0.175
Courant Number mean: 1.86711 max: 3.66496
DILUPBiCG:  Solving for T, Initial residual = 0.0338953, Final residual = 2.09218e-10, No Iterations 7
DILUPBiCG:  Solving for T, Initial residual = 0.000655368, Final residual = 9.57368e-09, No Iterations 4
DILUPBiCG:  Solving for T, Initial residual = 5.57188e-06, Final residual = 2.27212e-09, No Iterations 3
DILUPBiCG:  Solving for T, Initial residual = 1.44212e-07, Final residual = 8.63771e-09, No Iterations 1
 T goes from min(T) [0 0 0 0 0 0 0] 8.90292e-21 to max(T) [0 0 0 0 0 0 0] 0.956376

ExecutionTime = 11.04 s  ClockTime = 224 s

Time = 0.2
Courant Number mean: 1.86545 max: 3.66038
DILUPBiCG:  Solving for T, Initial residual = 0.0339139, Final residual = 4.01983e-09, No Iterations 6
DILUPBiCG:  Solving for T, Initial residual = 0.000666961, Final residual = 9.73172e-09, No Iterations 4
DILUPBiCG:  Solving for T, Initial residual = 5.9421e-06, Final residual = 1.89177e-09, No Iterations 3
DILUPBiCG:  Solving for T, Initial residual = 1.60985e-07, Final residual = 8.8379e-09, No Iterations 1
 T goes from min(T) [0 0 0 0 0 0 0] 9.50458e-21 to max(T) [0 0 0 0 0 0 0] 0.957055

ExecutionTime = 11.55 s  ClockTime = 234 s

Time = 0.225
Courant Number mean: 1.86366 max: 3.65524
DILUPBiCG:  Solving for T, Initial residual = 0.0339213, Final residual = 2.66867e-09, No Iterations 6
DILUPBiCG:  Solving for T, Initial residual = 0.000678624, Final residual = 7.85427e-09, No Iterations 4
DILUPBiCG:  Solving for T, Initial residual = 6.35427e-06, Final residual = 1.63961e-09, No Iterations 3
DILUPBiCG:  Solving for T, Initial residual = 1.79524e-07, Final residual = 9.08487e-09, No Iterations 1
 T goes from min(T) [0 0 0 0 0 0 0] 8.95899e-21 to max(T) [0 0 0 0 0 0 0] 0.957154

ExecutionTime = 12.06 s  ClockTime = 244 s

Time = 0.25
Courant Number mean: 1.8616 max: 3.64932
DILUPBiCG:  Solving for T, Initial residual = 0.0339242, Final residual = 2.34811e-09, No Iterations 6
DILUPBiCG:  Solving for T, Initial residual = 0.000690581, Final residual = 8.07216e-09, No Iterations 5
DILUPBiCG:  Solving for T, Initial residual = 6.81399e-06, Final residual = 1.49759e-09, No Iterations 3
DILUPBiCG:  Solving for T, Initial residual = 2.0086e-07, Final residual = 9.42406e-09, No Iterations 1
 T goes from min(T) [0 0 0 0 0 0 0] 8.80421e-21 to max(T) [0 0 0 0 0 0 0] 0.957734

ExecutionTime = 12.57 s  ClockTime = 254 s

Time = 0.275
Courant Number mean: 1.85925 max: 3.64305
DILUPBiCG:  Solving for T, Initial residual = 0.0339219, Final residual = 2.27126e-09, No Iterations 6
DILUPBiCG:  Solving for T, Initial residual = 0.000702935, Final residual = 1.86204e-09, No Iterations 5
DILUPBiCG:  Solving for T, Initial residual = 7.3113e-06, Final residual = 1.43565e-09, No Iterations 3
DILUPBiCG:  Solving for T, Initial residual = 2.25039e-07, Final residual = 9.86031e-09, No Iterations 1
 T goes from min(T) [0 0 0 0 0 0 0] 9.08724e-21 to max(T) [0 0 0 0 0 0 0] 0.957236

ExecutionTime = 13.11 s  ClockTime = 264 s

Time = 0.3
Courant Number mean: 1.85662 max: 3.63601
DILUPBiCG:  Solving for T, Initial residual = 0.0339238, Final residual = 2.41862e-09, No Iterations 6
DILUPBiCG:  Solving for T, Initial residual = 0.000715693, Final residual = 9.51544e-09, No Iterations 4
DILUPBiCG:  Solving for T, Initial residual = 7.85925e-06, Final residual = 1.43693e-09, No Iterations 3
DILUPBiCG:  Solving for T, Initial residual = 2.5278e-07, Final residual = 2.23234e-09, No Iterations 2
 T goes from min(T) [0 0 0 0 0 0 0] -1.5372e-16 to max(T) [0 0 0 0 0 0 0] 0.957997

ExecutionTime = 13.64 s  ClockTime = 274 s

Time = 0.325
Courant Number mean: 1.85389 max: 3.62841
DILUPBiCG:  Solving for T, Initial residual = 0.0339326, Final residual = 2.64801e-09, No Iterations 6
DILUPBiCG:  Solving for T, Initial residual = 0.000729504, Final residual = 8.80284e-09, No Iterations 4
DILUPBiCG:  Solving for T, Initial residual = 8.45724e-06, Final residual = 1.49675e-09, No Iterations 3
DILUPBiCG:  Solving for T, Initial residual = 2.82407e-07, Final residual = 2.28926e-09, No Iterations 2
 T goes from min(T) [0 0 0 0 0 0 0] -1.28833e-14 to max(T) [0 0 0 0 0 0 0] 0.958518

ExecutionTime = 14.13 s  ClockTime = 284 s

Time = 0.35
Courant Number mean: 1.85103 max: 3.62026
DILUPBiCG:  Solving for T, Initial residual = 0.033954, Final residual = 2.97866e-09, No Iterations 6
DILUPBiCG:  Solving for T, Initial residual = 0.000744796, Final residual = 8.79747e-09, No Iterations 4
DILUPBiCG:  Solving for T, Initial residual = 9.10883e-06, Final residual = 1.60579e-09, No Iterations 3
DILUPBiCG:  Solving for T, Initial residual = 3.14106e-07, Final residual = 2.36186e-09, No Iterations 2
 T goes from min(T) [0 0 0 0 0 0 0] -1.32439e-13 to max(T) [0 0 0 0 0 0 0] 0.957621

ExecutionTime = 14.65 s  ClockTime = 293 s

Time = 0.375
Courant Number mean: 1.84791 max: 3.61133
DILUPBiCG:  Solving for T, Initial residual = 0.0339942, Final residual = 3.44221e-09, No Iterations 6
DILUPBiCG:  Solving for T, Initial residual = 0.000761446, Final residual = 9.07256e-09, No Iterations 4
DILUPBiCG:  Solving for T, Initial residual = 9.82491e-06, Final residual = 1.76184e-09, No Iterations 3
DILUPBiCG:  Solving for T, Initial residual = 3.50575e-07, Final residual = 2.46668e-09, No Iterations 2
 T goes from min(T) [0 0 0 0 0 0 0] -5.78309e-13 to max(T) [0 0 0 0 0 0 0] 0.959122

ExecutionTime = 15.16 s  ClockTime = 303 s

Time = 0.4
Courant Number mean: 1.84451 max: 3.60207
DILUPBiCG:  Solving for T, Initial residual = 0.0340675, Final residual = 4.07254e-09, No Iterations 6
DILUPBiCG:  Solving for T, Initial residual = 0.000779528, Final residual = 9.53956e-09, No Iterations 4
DILUPBiCG:  Solving for T, Initial residual = 1.06132e-05, Final residual = 1.9738e-09, No Iterations 3
DILUPBiCG:  Solving for T, Initial residual = 3.92952e-07, Final residual = 2.60283e-09, No Iterations 2
 T goes from min(T) [0 0 0 0 0 0 0] -1.61329e-12 to max(T) [0 0 0 0 0 0 0] 0.958958

ExecutionTime = 15.68 s  ClockTime = 313 s

Time = 0.425
Courant Number mean: 1.84085 max: 3.59204
DILUPBiCG:  Solving for T, Initial residual = 0.0341734, Final residual = 4.9025e-09, No Iterations 6
DILUPBiCG:  Solving for T, Initial residual = 0.000799037, Final residual = 8.30785e-10, No Iterations 5
DILUPBiCG:  Solving for T, Initial residual = 1.14974e-05, Final residual = 2.27851e-09, No Iterations 3
DILUPBiCG:  Solving for T, Initial residual = 4.44082e-07, Final residual = 2.78135e-09, No Iterations 2
 T goes from min(T) [0 0 0 0 0 0 0] -3.4789e-12 to max(T) [0 0 0 0 0 0 0] 0.959514

ExecutionTime = 16.18 s  ClockTime = 323 s

Time = 0.45
Courant Number mean: 1.83708 max: 3.58147
DILUPBiCG:  Solving for T, Initial residual = 0.0343388, Final residual = 5.95552e-09, No Iterations 6
DILUPBiCG:  Solving for T, Initial residual = 0.000820072, Final residual = 9.21442e-10, No Iterations 5
DILUPBiCG:  Solving for T, Initial residual = 1.24796e-05, Final residual = 2.75193e-09, No Iterations 3
DILUPBiCG:  Solving for T, Initial residual = 5.01046e-07, Final residual = 2.97303e-09, No Iterations 2
 T goes from min(T) [0 0 0 0 0 0 0] -6.43965e-12 to max(T) [0 0 0 0 0 0 0] 0.95948

ExecutionTime = 16.73 s  ClockTime = 333 s

Time = 0.475
Courant Number mean: 1.83321 max: 3.57035
DILUPBiCG:  Solving for T, Initial residual = 0.0345511, Final residual = 7.26763e-09, No Iterations 6
DILUPBiCG:  Solving for T, Initial residual = 0.000842147, Final residual = 1.06749e-09, No Iterations 5
DILUPBiCG:  Solving for T, Initial residual = 1.35877e-05, Final residual = 3.46059e-09, No Iterations 3
DILUPBiCG:  Solving for T, Initial residual = 5.65381e-07, Final residual = 3.17079e-09, No Iterations 2
 T goes from min(T) [0 0 0 0 0 0 0] -1.09858e-11 to max(T) [0 0 0 0 0 0 0] 0.959148

ExecutionTime = 17.24 s  ClockTime = 343 s

Time = 0.5
Courant Number mean: 1.82907 max: 3.55847
DILUPBiCG:  Solving for T, Initial residual = 0.0347989, Final residual = 8.88827e-09, No Iterations 6
DILUPBiCG:  Solving for T, Initial residual = 0.000865852, Final residual = 1.28875e-09, No Iterations 5
DILUPBiCG:  Solving for T, Initial residual = 1.48249e-05, Final residual = 4.65565e-09, No Iterations 3
DILUPBiCG:  Solving for T, Initial residual = 6.43451e-07, Final residual = 3.42205e-09, No Iterations 2
 T goes from min(T) [0 0 0 0 0 0 0] -1.70525e-11 to max(T) [0 0 0 0 0 0 0] 0.958963

ExecutionTime = 17.75 s  ClockTime = 352 s

Time = 0.525
Courant Number mean: 1.82468 max: 3.54628
DILUPBiCG:  Solving for T, Initial residual = 0.0350819, Final residual = 3.97336e-09, No Iterations 7
DILUPBiCG:  Solving for T, Initial residual = 0.000891067, Final residual = 1.66087e-09, No Iterations 5
DILUPBiCG:  Solving for T, Initial residual = 1.61918e-05, Final residual = 7.24748e-09, No Iterations 3
DILUPBiCG:  Solving for T, Initial residual = 7.37097e-07, Final residual = 3.90246e-09, No Iterations 2
 T goes from min(T) [0 0 0 0 0 0 0] -2.36462e-11 to max(T) [0 0 0 0 0 0 0] 0.959179

ExecutionTime = 18.26 s  ClockTime = 362 s

Time = 0.55
Courant Number mean: 1.82003 max: 3.53333
DILUPBiCG:  Solving for T, Initial residual = 0.0353973, Final residual = 4.01665e-10, No Iterations 8
DILUPBiCG:  Solving for T, Initial residual = 0.000918109, Final residual = 2.00528e-09, No Iterations 5
DILUPBiCG:  Solving for T, Initial residual = 1.77227e-05, Final residual = 6.92715e-10, No Iterations 4
DILUPBiCG:  Solving for T, Initial residual = 8.48793e-07, Final residual = 5.391e-09, No Iterations 2
 T goes from min(T) [0 0 0 0 0 0 0] -2.9115e-06 to max(T) [0 0 0 0 0 0 0] 0.959772

ExecutionTime = 18.77 s  ClockTime = 370 s

Time = 0.575
Courant Number mean: 1.81528 max: 3.51985
DILUPBiCG:  Solving for T, Initial residual = 0.0357455, Final residual = 2.4777e-09, No Iterations 7
DILUPBiCG:  Solving for T, Initial residual = 0.000945902, Final residual = 2.5125e-09, No Iterations 5
DILUPBiCG:  Solving for T, Initial residual = 1.94347e-05, Final residual = 8.8192e-10, No Iterations 4
DILUPBiCG:  Solving for T, Initial residual = 9.76717e-07, Final residual = 1.26017e-09, No Iterations 3
 T goes from min(T) [0 0 0 0 0 0 0] -1.26739e-05 to max(T) [0 0 0 0 0 0 0] 0.960354

ExecutionTime = 19.3 s  ClockTime = 379 s

Time = 0.6
Courant Number mean: 1.81045 max: 3.50583
DILUPBiCG:  Solving for T, Initial residual = 0.0361105, Final residual = 4.9959e-09, No Iterations 7
DILUPBiCG:  Solving for T, Initial residual = 0.000975804, Final residual = 2.98928e-09, No Iterations 5
DILUPBiCG:  Solving for T, Initial residual = 2.13167e-05, Final residual = 1.13926e-09, No Iterations 4
DILUPBiCG:  Solving for T, Initial residual = 1.12532e-06, Final residual = 1.50702e-09, No Iterations 3
 T goes from min(T) [0 0 0 0 0 0 0] -2.73109e-05 to max(T) [0 0 0 0 0 0 0] 0.960272

ExecutionTime = 19.81 s  ClockTime = 386 s

Time = 0.625
Courant Number mean: 1.80537 max: 3.49108
DILUPBiCG:  Solving for T, Initial residual = 0.0364962, Final residual = 3.11424e-09, No Iterations 7
DILUPBiCG:  Solving for T, Initial residual = 0.00100702, Final residual = 3.86502e-09, No Iterations 5
DILUPBiCG:  Solving for T, Initial residual = 2.34358e-05, Final residual = 1.5039e-09, No Iterations 4
DILUPBiCG:  Solving for T, Initial residual = 1.29908e-06, Final residual = 1.7052e-09, No Iterations 3
 T goes from min(T) [0 0 0 0 0 0 0] -4.90947e-05 to max(T) [0 0 0 0 0 0 0] 0.959965

ExecutionTime = 20.31 s  ClockTime = 394 s

Time = 0.65
Courant Number mean: 1.80005 max: 3.47602
DILUPBiCG:  Solving for T, Initial residual = 0.0369189, Final residual = 3.75398e-09, No Iterations 7
DILUPBiCG:  Solving for T, Initial residual = 0.00103963, Final residual = 7.29331e-09, No Iterations 5
DILUPBiCG:  Solving for T, Initial residual = 2.57885e-05, Final residual = 2.14323e-09, No Iterations 4
DILUPBiCG:  Solving for T, Initial residual = 1.50223e-06, Final residual = 1.81503e-09, No Iterations 3
 T goes from min(T) [0 0 0 0 0 0 0] -7.46527e-05 to max(T) [0 0 0 0 0 0 0] 0.958441

ExecutionTime = 20.86 s  ClockTime = 402 s

Time = 0.675
Courant Number mean: 1.7945 max: 3.46023
DILUPBiCG:  Solving for T, Initial residual = 0.0373662, Final residual = 4.61363e-09, No Iterations 7
DILUPBiCG:  Solving for T, Initial residual = 0.00107478, Final residual = 9.16553e-10, No Iterations 6
DILUPBiCG:  Solving for T, Initial residual = 2.83674e-05, Final residual = 3.51393e-09, No Iterations 4
DILUPBiCG:  Solving for T, Initial residual = 1.73862e-06, Final residual = 1.76482e-09, No Iterations 3
 T goes from min(T) [0 0 0 0 0 0 0] -0.000105209 to max(T) [0 0 0 0 0 0 0] 0.960044

ExecutionTime = 21.39 s  ClockTime = 410 s

Time = 0.7
Courant Number mean: 1.78888 max: 3.44392
DILUPBiCG:  Solving for T, Initial residual = 0.0378439, Final residual = 5.39468e-09, No Iterations 7
DILUPBiCG:  Solving for T, Initial residual = 0.0011111, Final residual = 1.19998e-09, No Iterations 6
DILUPBiCG:  Solving for T, Initial residual = 3.12241e-05, Final residual = 4.89893e-09, No Iterations 4
DILUPBiCG:  Solving for T, Initial residual = 2.00615e-06, Final residual = 5.29467e-09, No Iterations 3
 T goes from min(T) [0 0 0 0 0 0 0] -0.000140638 to max(T) [0 0 0 0 0 0 0] 0.960388

ExecutionTime = 21.91 s  ClockTime = 418 s

Time = 0.725
Courant Number mean: 1.78318 max: 3.42709
DILUPBiCG:  Solving for T, Initial residual = 0.038336, Final residual = 6.11969e-09, No Iterations 7
DILUPBiCG:  Solving for T, Initial residual = 0.00115027, Final residual = 1.49052e-09, No Iterations 6
DILUPBiCG:  Solving for T, Initial residual = 3.43595e-05, Final residual = 4.44331e-09, No Iterations 4
DILUPBiCG:  Solving for T, Initial residual = 2.30844e-06, Final residual = 6.11257e-10, No Iterations 4
 T goes from min(T) [0 0 0 0 0 0 0] -0.000179954 to max(T) [0 0 0 0 0 0 0] 0.957444

ExecutionTime = 22.45 s  ClockTime = 426 s

Time = 0.75
Courant Number mean: 1.77725 max: 3.40956
DILUPBiCG:  Solving for T, Initial residual = 0.0388816, Final residual = 8.49107e-09, No Iterations 7
DILUPBiCG:  Solving for T, Initial residual = 0.00119149, Final residual = 1.95364e-09, No Iterations 6
DILUPBiCG:  Solving for T, Initial residual = 3.78195e-05, Final residual = 4.83636e-09, No Iterations 4
DILUPBiCG:  Solving for T, Initial residual = 2.65079e-06, Final residual = 8.65829e-09, No Iterations 3
 T goes from min(T) [0 0 0 0 0 0 0] -0.000221569 to max(T) [0 0 0 0 0 0 0] 0.960297

ExecutionTime = 22.98 s  ClockTime = 434 s

Time = 0.775
Courant Number mean: 1.77111 max: 3.39172
DILUPBiCG:  Solving for T, Initial residual = 0.0394317, Final residual = 1.52281e-09, No Iterations 8
DILUPBiCG:  Solving for T, Initial residual = 0.00123669, Final residual = 2.37357e-09, No Iterations 6
DILUPBiCG:  Solving for T, Initial residual = 4.15652e-05, Final residual = 6.24963e-09, No Iterations 4
DILUPBiCG:  Solving for T, Initial residual = 3.04159e-06, Final residual = 6.21484e-09, No Iterations 3
 T goes from min(T) [0 0 0 0 0 0 0] -0.000265605 to max(T) [0 0 0 0 0 0 0] 0.956374

ExecutionTime = 23.55 s  ClockTime = 443 s

Time = 0.8
Courant Number mean: 1.76476 max: 3.37319
DILUPBiCG:  Solving for T, Initial residual = 0.0400468, Final residual = 2.50096e-09, No Iterations 8
DILUPBiCG:  Solving for T, Initial residual = 0.00128366, Final residual = 2.53609e-09, No Iterations 6
DILUPBiCG:  Solving for T, Initial residual = 4.56533e-05, Final residual = 8.55562e-09, No Iterations 4
DILUPBiCG:  Solving for T, Initial residual = 3.48469e-06, Final residual = 6.67912e-09, No Iterations 3
 T goes from min(T) [0 0 0 0 0 0 0] -0.000308121 to max(T) [0 0 0 0 0 0 0] 0.960003

ExecutionTime = 24.07 s  ClockTime = 450 s

Time = 0.825
Courant Number mean: 1.75835 max: 3.35415
DILUPBiCG:  Solving for T, Initial residual = 0.0406562, Final residual = 3.00616e-09, No Iterations 8
DILUPBiCG:  Solving for T, Initial residual = 0.00133401, Final residual = 7.59769e-09, No Iterations 6
DILUPBiCG:  Solving for T, Initial residual = 5.00939e-05, Final residual = 1.42661e-09, No Iterations 5
DILUPBiCG:  Solving for T, Initial residual = 3.97865e-06, Final residual = 7.79158e-09, No Iterations 3
 T goes from min(T) [0 0 0 0 0 0 0] -0.00035729 to max(T) [0 0 0 0 0 0 0] 0.952946

ExecutionTime = 24.6 s  ClockTime = 458 s

Time = 0.85
Courant Number mean: 1.75189 max: 3.33463
DILUPBiCG:  Solving for T, Initial residual = 0.0413347, Final residual = 2.01851e-09, No Iterations 8
DILUPBiCG:  Solving for T, Initial residual = 0.00138569, Final residual = 3.88295e-09, No Iterations 6
DILUPBiCG:  Solving for T, Initial residual = 5.48435e-05, Final residual = 1.4244e-09, No Iterations 5
DILUPBiCG:  Solving for T, Initial residual = 4.51827e-06, Final residual = 1.3401e-09, No Iterations 4
 T goes from min(T) [0 0 0 0 0 0 0] -0.000398077 to max(T) [0 0 0 0 0 0 0] 0.960062

ExecutionTime = 25.12 s  ClockTime = 466 s

Time = 0.875
Courant Number mean: 1.74525 max: 3.31442
DILUPBiCG:  Solving for T, Initial residual = 0.0420032, Final residual = 1.34981e-09, No Iterations 8
DILUPBiCG:  Solving for T, Initial residual = 0.00143972, Final residual = 3.09869e-09, No Iterations 6
DILUPBiCG:  Solving for T, Initial residual = 6.00312e-05, Final residual = 1.72518e-09, No Iterations 5
DILUPBiCG:  Solving for T, Initial residual = 5.12163e-06, Final residual = 1.54724e-09, No Iterations 4
 T goes from min(T) [0 0 0 0 0 0 0] -0.000450389 to max(T) [0 0 0 0 0 0 0] 0.954149

ExecutionTime = 25.66 s  ClockTime = 474 s

Time = 0.9
Courant Number mean: 1.73841 max: 3.29392
DILUPBiCG:  Solving for T, Initial residual = 0.0427235, Final residual = 1.38244e-09, No Iterations 8
DILUPBiCG:  Solving for T, Initial residual = 0.00149666, Final residual = 8.09583e-10, No Iterations 7
DILUPBiCG:  Solving for T, Initial residual = 6.55402e-05, Final residual = 2.07621e-09, No Iterations 5
DILUPBiCG:  Solving for T, Initial residual = 5.79251e-06, Final residual = 1.5562e-09, No Iterations 4
 T goes from min(T) [0 0 0 0 0 0 0] -0.000498361 to max(T) [0 0 0 0 0 0 0] 0.956001

ExecutionTime = 26.21 s  ClockTime = 482 s

Time = 0.925
Courant Number mean: 1.73139 max: 3.27275
DILUPBiCG:  Solving for T, Initial residual = 0.0434664, Final residual = 1.53295e-09, No Iterations 8
DILUPBiCG:  Solving for T, Initial residual = 0.00155443, Final residual = 9.90287e-10, No Iterations 7
DILUPBiCG:  Solving for T, Initial residual = 7.14714e-05, Final residual = 2.56998e-09, No Iterations 5
DILUPBiCG:  Solving for T, Initial residual = 6.52645e-06, Final residual = 1.34203e-09, No Iterations 4
 T goes from min(T) [0 0 0 0 0 0 0] -0.000544364 to max(T) [0 0 0 0 0 0 0] 0.959788

ExecutionTime = 26.75 s  ClockTime = 491 s

Time = 0.95
Courant Number mean: 1.72434 max: 3.25111
DILUPBiCG:  Solving for T, Initial residual = 0.0442148, Final residual = 1.44397e-09, No Iterations 8
DILUPBiCG:  Solving for T, Initial residual = 0.00161451, Final residual = 1.11871e-09, No Iterations 7
DILUPBiCG:  Solving for T, Initial residual = 7.77754e-05, Final residual = 1.57578e-09, No Iterations 6
DILUPBiCG:  Solving for T, Initial residual = 7.32046e-06, Final residual = 3.64213e-09, No Iterations 4
 T goes from min(T) [0 0 0 0 0 0 0] -0.000589614 to max(T) [0 0 0 0 0 0 0] 0.957863

ExecutionTime = 27.3 s  ClockTime = 499 s

Time = 0.975
Courant Number mean: 1.71727 max: 3.229
DILUPBiCG:  Solving for T, Initial residual = 0.0450004, Final residual = 2.90345e-09, No Iterations 8
DILUPBiCG:  Solving for T, Initial residual = 0.00167702, Final residual = 4.32165e-09, No Iterations 6
DILUPBiCG:  Solving for T, Initial residual = 8.44433e-05, Final residual = 2.17128e-09, No Iterations 5
DILUPBiCG:  Solving for T, Initial residual = 8.18251e-06, Final residual = 1.89343e-09, No Iterations 4
 T goes from min(T) [0 0 0 0 0 0 0] -0.000634022 to max(T) [0 0 0 0 0 0 0] 0.955739

ExecutionTime = 27.84 s  ClockTime = 507 s

Time = 1
Courant Number mean: 1.71005 max: 3.20624
DILUPBiCG:  Solving for T, Initial residual = 0.0457981, Final residual = 1.36674e-09, No Iterations 8
DILUPBiCG:  Solving for T, Initial residual = 0.00174081, Final residual = 2.67463e-09, No Iterations 6
DILUPBiCG:  Solving for T, Initial residual = 9.14986e-05, Final residual = 1.65104e-09, No Iterations 5
DILUPBiCG:  Solving for T, Initial residual = 9.1272e-06, Final residual = 3.45848e-09, No Iterations 4
 T goes from min(T) [0 0 0 0 0 0 0] -0.00067588 to max(T) [0 0 0 0 0 0 0] 0.958145

ExecutionTime = 28.44 s  ClockTime = 516 s

Time = 1.025
Courant Number mean: 1.70266 max: 3.1832
DILUPBiCG:  Solving for T, Initial residual = 0.046597, Final residual = 9.663e-09, No Iterations 7
DILUPBiCG:  Solving for T, Initial residual = 0.00180539, Final residual = 2.61053e-09, No Iterations 6
DILUPBiCG:  Solving for T, Initial residual = 9.90235e-05, Final residual = 1.39406e-09, No Iterations 5
DILUPBiCG:  Solving for T, Initial residual = 1.01489e-05, Final residual = 1.96792e-09, No Iterations 4
 T goes from min(T) [0 0 0 0 0 0 0] -0.000712378 to max(T) [0 0 0 0 0 0 0] 0.959548

ExecutionTime = 29 s  ClockTime = 524 s

Time = 1.05
Courant Number mean: 1.69514 max: 3.15954
DILUPBiCG:  Solving for T, Initial residual = 0.0474096, Final residual = 7.12078e-09, No Iterations 7
DILUPBiCG:  Solving for T, Initial residual = 0.00187345, Final residual = 2.01554e-09, No Iterations 6
DILUPBiCG:  Solving for T, Initial residual = 0.000107002, Final residual = 1.29784e-09, No Iterations 5
DILUPBiCG:  Solving for T, Initial residual = 1.12467e-05, Final residual = 1.75378e-09, No Iterations 4
 T goes from min(T) [0 0 0 0 0 0 0] -0.000755544 to max(T) [0 0 0 0 0 0 0] 0.959786

ExecutionTime = 29.52 s  ClockTime = 532 s

Time = 1.075
Courant Number mean: 1.68763 max: 3.13542
DILUPBiCG:  Solving for T, Initial residual = 0.0482348, Final residual = 3.69274e-09, No Iterations 7
DILUPBiCG:  Solving for T, Initial residual = 0.00194173, Final residual = 1.68382e-09, No Iterations 6
DILUPBiCG:  Solving for T, Initial residual = 0.000115242, Final residual = 1.23159e-09, No Iterations 5
DILUPBiCG:  Solving for T, Initial residual = 1.24362e-05, Final residual = 1.557e-09, No Iterations 4
 T goes from min(T) [0 0 0 0 0 0 0] -0.000795747 to max(T) [0 0 0 0 0 0 0] 0.959601

ExecutionTime = 30.05 s  ClockTime = 540 s

Time = 1.1
Courant Number mean: 1.68012 max: 3.11086
DILUPBiCG:  Solving for T, Initial residual = 0.0490643, Final residual = 3.04209e-09, No Iterations 7
DILUPBiCG:  Solving for T, Initial residual = 0.00201238, Final residual = 1.6125e-09, No Iterations 6
DILUPBiCG:  Solving for T, Initial residual = 0.000124082, Final residual = 1.16178e-09, No Iterations 5
DILUPBiCG:  Solving for T, Initial residual = 1.36789e-05, Final residual = 1.49251e-09, No Iterations 4
 T goes from min(T) [0 0 0 0 0 0 0] -0.000826417 to max(T) [0 0 0 0 0 0 0] 0.959816

ExecutionTime = 30.56 s  ClockTime = 548 s

Time = 1.125
Courant Number mean: 1.67251 max: 3.08569
DILUPBiCG:  Solving for T, Initial residual = 0.0498704, Final residual = 3.15319e-09, No Iterations 7
DILUPBiCG:  Solving for T, Initial residual = 0.00208389, Final residual = 1.96887e-09, No Iterations 6
DILUPBiCG:  Solving for T, Initial residual = 0.000133151, Final residual = 1.10739e-09, No Iterations 5
DILUPBiCG:  Solving for T, Initial residual = 1.49979e-05, Final residual = 1.46424e-09, No Iterations 4
 T goes from min(T) [0 0 0 0 0 0 0] -0.000865788 to max(T) [0 0 0 0 0 0 0] 0.960352

ExecutionTime = 31.1 s  ClockTime = 556 s

Time = 1.15
Courant Number mean: 1.66479 max: 3.06026
DILUPBiCG:  Solving for T, Initial residual = 0.0506737, Final residual = 2.72951e-09, No Iterations 7
DILUPBiCG:  Solving for T, Initial residual = 0.0021562, Final residual = 3.56493e-09, No Iterations 6
DILUPBiCG:  Solving for T, Initial residual = 0.000142691, Final residual = 1.0825e-09, No Iterations 5
DILUPBiCG:  Solving for T, Initial residual = 1.6463e-05, Final residual = 1.46427e-09, No Iterations 4
 T goes from min(T) [0 0 0 0 0 0 0] -0.000900136 to max(T) [0 0 0 0 0 0 0] 0.959991

ExecutionTime = 31.72 s  ClockTime = 565 s

Time = 1.175
Courant Number mean: 1.65697 max: 3.03424
DILUPBiCG:  Solving for T, Initial residual = 0.0514892, Final residual = 2.06298e-09, No Iterations 7
DILUPBiCG:  Solving for T, Initial residual = 0.00223176, Final residual = 1.2929e-09, No Iterations 6
DILUPBiCG:  Solving for T, Initial residual = 0.000152775, Final residual = 1.07958e-09, No Iterations 5
DILUPBiCG:  Solving for T, Initial residual = 1.79439e-05, Final residual = 1.47779e-09, No Iterations 4
 T goes from min(T) [0 0 0 0 0 0 0] -0.000930092 to max(T) [0 0 0 0 0 0 0] 0.961198

ExecutionTime = 32.3 s  ClockTime = 574 s

Time = 1.2
Courant Number mean: 1.64921 max: 3.0078
DILUPBiCG:  Solving for T, Initial residual = 0.0522854, Final residual = 1.73921e-09, No Iterations 7
DILUPBiCG:  Solving for T, Initial residual = 0.00230798, Final residual = 6.20193e-09, No Iterations 6
DILUPBiCG:  Solving for T, Initial residual = 0.000163095, Final residual = 1.08602e-09, No Iterations 5
DILUPBiCG:  Solving for T, Initial residual = 1.95538e-05, Final residual = 1.51659e-09, No Iterations 4
 T goes from min(T) [0 0 0 0 0 0 0] -0.00279404 to max(T) [0 0 0 0 0 0 0] 0.961524

ExecutionTime = 32.83 s  ClockTime = 582 s

Time = 1.225
Courant Number mean: 1.64149 max: 2.98094
DILUPBiCG:  Solving for T, Initial residual = 0.0530963, Final residual = 1.64499e-09, No Iterations 7
DILUPBiCG:  Solving for T, Initial residual = 0.00238571, Final residual = 1.22481e-09, No Iterations 6
DILUPBiCG:  Solving for T, Initial residual = 0.000173745, Final residual = 1.09968e-09, No Iterations 5
DILUPBiCG:  Solving for T, Initial residual = 2.12175e-05, Final residual = 1.53056e-09, No Iterations 4
 T goes from min(T) [0 0 0 0 0 0 0] -0.00605005 to max(T) [0 0 0 0 0 0 0] 0.961386

ExecutionTime = 33.37 s  ClockTime = 590 s

Time = 1.25
Courant Number mean: 1.63373 max: 2.95352
DILUPBiCG:  Solving for T, Initial residual = 0.0538813, Final residual = 1.5671e-09, No Iterations 7
DILUPBiCG:  Solving for T, Initial residual = 0.00246534, Final residual = 1.20357e-09, No Iterations 6
DILUPBiCG:  Solving for T, Initial residual = 0.000185191, Final residual = 1.10347e-09, No Iterations 5
DILUPBiCG:  Solving for T, Initial residual = 2.29919e-05, Final residual = 1.56908e-09, No Iterations 4
 T goes from min(T) [0 0 0 0 0 0 0] -0.00990631 to max(T) [0 0 0 0 0 0 0] 0.961296

ExecutionTime = 33.89 s  ClockTime = 598 s

Time = 1.275
Courant Number mean: 1.62591 max: 2.92585
DILUPBiCG:  Solving for T, Initial residual = 0.0546528, Final residual = 1.51881e-09, No Iterations 7
DILUPBiCG:  Solving for T, Initial residual = 0.00254885, Final residual = 1.17038e-09, No Iterations 6
DILUPBiCG:  Solving for T, Initial residual = 0.000196413, Final residual = 1.1189e-09, No Iterations 5
DILUPBiCG:  Solving for T, Initial residual = 2.48043e-05, Final residual = 1.62614e-09, No Iterations 4
 T goes from min(T) [0 0 0 0 0 0 0] -0.0141506 to max(T) [0 0 0 0 0 0 0] 0.961949

ExecutionTime = 34.41 s  ClockTime = 606 s

Time = 1.3
Courant Number mean: 1.61808 max: 2.89764
DILUPBiCG:  Solving for T, Initial residual = 0.0554663, Final residual = 1.5044e-09, No Iterations 7
DILUPBiCG:  Solving for T, Initial residual = 0.00262959, Final residual = 1.12972e-09, No Iterations 6
DILUPBiCG:  Solving for T, Initial residual = 0.000208413, Final residual = 1.11979e-09, No Iterations 5
DILUPBiCG:  Solving for T, Initial residual = 2.67062e-05, Final residual = 1.67138e-09, No Iterations 4
 T goes from min(T) [0 0 0 0 0 0 0] -0.0182153 to max(T) [0 0 0 0 0 0 0] 0.962249

ExecutionTime = 34.94 s  ClockTime = 613 s

Time = 1.325
Courant Number mean: 1.61034 max: 2.86903
DILUPBiCG:  Solving for T, Initial residual = 0.0562501, Final residual = 1.5368e-09, No Iterations 7
DILUPBiCG:  Solving for T, Initial residual = 0.00271346, Final residual = 1.08736e-09, No Iterations 6
DILUPBiCG:  Solving for T, Initial residual = 0.000220413, Final residual = 1.13089e-09, No Iterations 5
DILUPBiCG:  Solving for T, Initial residual = 2.86367e-05, Final residual = 1.73075e-09, No Iterations 4
 T goes from min(T) [0 0 0 0 0 0 0] -0.0229497 to max(T) [0 0 0 0 0 0 0] 0.96214

ExecutionTime = 35.53 s  ClockTime = 622 s

Time = 1.35
Courant Number mean: 1.60272 max: 2.84004
DILUPBiCG:  Solving for T, Initial residual = 0.0570721, Final residual = 1.65852e-09, No Iterations 7
DILUPBiCG:  Solving for T, Initial residual = 0.00279515, Final residual = 1.04702e-09, No Iterations 6
DILUPBiCG:  Solving for T, Initial residual = 0.000232761, Final residual = 1.12054e-09, No Iterations 5
DILUPBiCG:  Solving for T, Initial residual = 3.07265e-05, Final residual = 1.78587e-09, No Iterations 4
 T goes from min(T) [0 0 0 0 0 0 0] -0.02942 to max(T) [0 0 0 0 0 0 0] 0.96307

ExecutionTime = 36.09 s  ClockTime = 631 s

Time = 1.375
Courant Number mean: 1.59511 max: 2.81053
DILUPBiCG:  Solving for T, Initial residual = 0.057848, Final residual = 2.45971e-09, No Iterations 7
DILUPBiCG:  Solving for T, Initial residual = 0.00288063, Final residual = 1.01839e-09, No Iterations 6
DILUPBiCG:  Solving for T, Initial residual = 0.000245315, Final residual = 1.12124e-09, No Iterations 5
DILUPBiCG:  Solving for T, Initial residual = 3.27426e-05, Final residual = 1.84949e-09, No Iterations 4
 T goes from min(T) [0 0 0 0 0 0 0] -0.0349111 to max(T) [0 0 0 0 0 0 0] 0.963621

ExecutionTime = 36.67 s  ClockTime = 639 s

Time = 1.4
Courant Number mean: 1.58754 max: 2.7808
DILUPBiCG:  Solving for T, Initial residual = 0.0586538, Final residual = 1.85171e-09, No Iterations 7
DILUPBiCG:  Solving for T, Initial residual = 0.00296615, Final residual = 9.74125e-09, No Iterations 5
DILUPBiCG:  Solving for T, Initial residual = 0.000258021, Final residual = 1.10795e-09, No Iterations 5
DILUPBiCG:  Solving for T, Initial residual = 3.4903e-05, Final residual = 1.91693e-09, No Iterations 4
 T goes from min(T) [0 0 0 0 0 0 0] -0.0398211 to max(T) [0 0 0 0 0 0 0] 0.964449

ExecutionTime = 37.22 s  ClockTime = 648 s

Time = 1.425
Courant Number mean: 1.58002 max: 2.75056
DILUPBiCG:  Solving for T, Initial residual = 0.0594466, Final residual = 1.04681e-09, No Iterations 7
DILUPBiCG:  Solving for T, Initial residual = 0.00305161, Final residual = 9.39833e-09, No Iterations 5
DILUPBiCG:  Solving for T, Initial residual = 0.00027067, Final residual = 1.09056e-09, No Iterations 5
DILUPBiCG:  Solving for T, Initial residual = 3.70578e-05, Final residual = 1.98273e-09, No Iterations 4
 T goes from min(T) [0 0 0 0 0 0 0] -0.0475722 to max(T) [0 0 0 0 0 0 0] 0.964648

ExecutionTime = 37.74 s  ClockTime = 655 s

Time = 1.45
Courant Number mean: 1.57252 max: 2.71997
DILUPBiCG:  Solving for T, Initial residual = 0.0602479, Final residual = 9.19578e-10, No Iterations 7
DILUPBiCG:  Solving for T, Initial residual = 0.00313712, Final residual = 9.04367e-09, No Iterations 5
DILUPBiCG:  Solving for T, Initial residual = 0.000283982, Final residual = 1.07429e-09, No Iterations 5
DILUPBiCG:  Solving for T, Initial residual = 3.92584e-05, Final residual = 2.05656e-09, No Iterations 4
 T goes from min(T) [0 0 0 0 0 0 0] -0.0521087 to max(T) [0 0 0 0 0 0 0] 0.964869

ExecutionTime = 38.27 s  ClockTime = 663 s

Time = 1.475
Courant Number mean: 1.56499 max: 2.68903
DILUPBiCG:  Solving for T, Initial residual = 0.0610398, Final residual = 8.36817e-10, No Iterations 7
DILUPBiCG:  Solving for T, Initial residual = 0.00322323, Final residual = 8.77109e-09, No Iterations 5
DILUPBiCG:  Solving for T, Initial residual = 0.000296545, Final residual = 1.04236e-09, No Iterations 5
DILUPBiCG:  Solving for T, Initial residual = 4.1435e-05, Final residual = 2.14127e-09, No Iterations 4
 T goes from min(T) [0 0 0 0 0 0 0] -0.0601554 to max(T) [0 0 0 0 0 0 0] 0.96413

ExecutionTime = 38.8 s  ClockTime = 671 s

Time = 1.5
Courant Number mean: 1.55733 max: 2.65762
DILUPBiCG:  Solving for T, Initial residual = 0.0618383, Final residual = 7.86615e-10, No Iterations 7
DILUPBiCG:  Solving for T, Initial residual = 0.00330786, Final residual = 8.33406e-09, No Iterations 5
DILUPBiCG:  Solving for T, Initial residual = 0.000309883, Final residual = 1.01914e-09, No Iterations 5
DILUPBiCG:  Solving for T, Initial residual = 4.37438e-05, Final residual = 2.22527e-09, No Iterations 4
 T goes from min(T) [0 0 0 0 0 0 0] -0.0662272 to max(T) [0 0 0 0 0 0 0] 0.964473

ExecutionTime = 39.36 s  ClockTime = 680 s

Time = 1.525
Courant Number mean: 1.54954 max: 2.626
DILUPBiCG:  Solving for T, Initial residual = 0.0625945, Final residual = 7.427e-10, No Iterations 7
DILUPBiCG:  Solving for T, Initial residual = 0.00339208, Final residual = 7.99705e-09, No Iterations 5
DILUPBiCG:  Solving for T, Initial residual = 0.000322622, Final residual = 9.80002e-10, No Iterations 5
DILUPBiCG:  Solving for T, Initial residual = 4.5855e-05, Final residual = 2.3136e-09, No Iterations 4
 T goes from min(T) [0 0 0 0 0 0 0] -0.073207 to max(T) [0 0 0 0 0 0 0] 0.96534

ExecutionTime = 39.91 s  ClockTime = 688 s

Time = 1.55
Courant Number mean: 1.54163 max: 2.59393
DILUPBiCG:  Solving for T, Initial residual = 0.0633714, Final residual = 6.97696e-10, No Iterations 7
DILUPBiCG:  Solving for T, Initial residual = 0.00347722, Final residual = 7.54737e-09, No Iterations 5
DILUPBiCG:  Solving for T, Initial residual = 0.0003356, Final residual = 9.47817e-10, No Iterations 5
DILUPBiCG:  Solving for T, Initial residual = 4.81978e-05, Final residual = 2.40946e-09, No Iterations 4
 T goes from min(T) [0 0 0 0 0 0 0] -0.0797192 to max(T) [0 0 0 0 0 0 0] 0.963131

ExecutionTime = 40.44 s  ClockTime = 696 s

Time = 1.575
Courant Number mean: 1.53369 max: 2.56154
DILUPBiCG:  Solving for T, Initial residual = 0.0641272, Final residual = 6.48598e-10, No Iterations 7
DILUPBiCG:  Solving for T, Initial residual = 0.00355812, Final residual = 7.10459e-09, No Iterations 5
DILUPBiCG:  Solving for T, Initial residual = 0.000348657, Final residual = 9.04369e-10, No Iterations 5
DILUPBiCG:  Solving for T, Initial residual = 5.03724e-05, Final residual = 2.5032e-09, No Iterations 4
 T goes from min(T) [0 0 0 0 0 0 0] -0.0869353 to max(T) [0 0 0 0 0 0 0] 0.964307

ExecutionTime = 40.97 s  ClockTime = 704 s

Time = 1.6
Courant Number mean: 1.52573 max: 2.52884
DILUPBiCG:  Solving for T, Initial residual = 0.0648669, Final residual = 9.00134e-09, No Iterations 6
DILUPBiCG:  Solving for T, Initial residual = 0.00364099, Final residual = 6.66501e-09, No Iterations 5
DILUPBiCG:  Solving for T, Initial residual = 0.000360719, Final residual = 8.64332e-10, No Iterations 5
DILUPBiCG:  Solving for T, Initial residual = 5.25096e-05, Final residual = 2.60533e-09, No Iterations 4
 T goes from min(T) [0 0 0 0 0 0 0] -0.092506 to max(T) [0 0 0 0 0 0 0] 0.964408

ExecutionTime = 41.51 s  ClockTime = 712 s

Time = 1.625
Courant Number mean: 1.51764 max: 2.49572
DILUPBiCG:  Solving for T, Initial residual = 0.0656523, Final residual = 8.26913e-09, No Iterations 6
DILUPBiCG:  Solving for T, Initial residual = 0.00371924, Final residual = 6.16006e-09, No Iterations 5
DILUPBiCG:  Solving for T, Initial residual = 0.000374082, Final residual = 9.80128e-09, No Iterations 4
DILUPBiCG:  Solving for T, Initial residual = 5.47808e-05, Final residual = 2.72305e-09, No Iterations 4
 T goes from min(T) [0 0 0 0 0 0 0] -0.100728 to max(T) [0 0 0 0 0 0 0] 0.963721

ExecutionTime = 42.06 s  ClockTime = 720 s

Time = 1.65
Courant Number mean: 1.50944 max: 2.46241
DILUPBiCG:  Solving for T, Initial residual = 0.0663586, Final residual = 8.01783e-09, No Iterations 6
DILUPBiCG:  Solving for T, Initial residual = 0.00379607, Final residual = 5.71648e-09, No Iterations 5
DILUPBiCG:  Solving for T, Initial residual = 0.000385244, Final residual = 9.3539e-09, No Iterations 4
DILUPBiCG:  Solving for T, Initial residual = 5.67276e-05, Final residual = 2.82964e-09, No Iterations 4
 T goes from min(T) [0 0 0 0 0 0 0] -0.105122 to max(T) [0 0 0 0 0 0 0] 0.964407

ExecutionTime = 42.56 s  ClockTime = 727 s

Time = 1.675
Courant Number mean: 1.50114 max: 2.42871
DILUPBiCG:  Solving for T, Initial residual = 0.0671226, Final residual = 4.87128e-09, No Iterations 7
DILUPBiCG:  Solving for T, Initial residual = 0.00387276, Final residual = 5.25452e-09, No Iterations 5
DILUPBiCG:  Solving for T, Initial residual = 0.000397832, Final residual = 8.99545e-09, No Iterations 4
DILUPBiCG:  Solving for T, Initial residual = 5.89008e-05, Final residual = 2.95511e-09, No Iterations 4
 T goes from min(T) [0 0 0 0 0 0 0] -0.11421 to max(T) [0 0 0 0 0 0 0] 0.963233

ExecutionTime = 43.1 s  ClockTime = 735 s

Time = 1.7
Courant Number mean: 1.49281 max: 2.39472
DILUPBiCG:  Solving for T, Initial residual = 0.0678218, Final residual = 4.22183e-10, No Iterations 7
DILUPBiCG:  Solving for T, Initial residual = 0.00394605, Final residual = 4.7671e-09, No Iterations 5
DILUPBiCG:  Solving for T, Initial residual = 0.000409348, Final residual = 8.534e-09, No Iterations 4
DILUPBiCG:  Solving for T, Initial residual = 6.09462e-05, Final residual = 3.12655e-09, No Iterations 4
 T goes from min(T) [0 0 0 0 0 0 0] -0.119281 to max(T) [0 0 0 0 0 0 0] 0.963786

ExecutionTime = 43.62 s  ClockTime = 741 s

Time = 1.725
Courant Number mean: 1.48445 max: 2.36046
DILUPBiCG:  Solving for T, Initial residual = 0.0685294, Final residual = 6.56907e-09, No Iterations 6
DILUPBiCG:  Solving for T, Initial residual = 0.00401401, Final residual = 4.3465e-09, No Iterations 5
DILUPBiCG:  Solving for T, Initial residual = 0.000420163, Final residual = 8.05121e-09, No Iterations 4
DILUPBiCG:  Solving for T, Initial residual = 6.2642e-05, Final residual = 3.29475e-09, No Iterations 4
 T goes from min(T) [0 0 0 0 0 0 0] -0.126285 to max(T) [0 0 0 0 0 0 0] 0.962864

ExecutionTime = 44.13 s  ClockTime = 748 s

Time = 1.75
Courant Number mean: 1.47599 max: 2.32583
DILUPBiCG:  Solving for T, Initial residual = 0.0692052, Final residual = 5.17837e-09, No Iterations 6
DILUPBiCG:  Solving for T, Initial residual = 0.00408802, Final residual = 3.91248e-09, No Iterations 5
DILUPBiCG:  Solving for T, Initial residual = 0.000431289, Final residual = 7.69454e-09, No Iterations 4
DILUPBiCG:  Solving for T, Initial residual = 6.46207e-05, Final residual = 3.46746e-09, No Iterations 4
 T goes from min(T) [0 0 0 0 0 0 0] -0.133016 to max(T) [0 0 0 0 0 0 0] 0.962786

ExecutionTime = 44.65 s  ClockTime = 755 s

Time = 1.775
Courant Number mean: 1.46744 max: 2.29104
DILUPBiCG:  Solving for T, Initial residual = 0.0699025, Final residual = 4.28116e-09, No Iterations 6
DILUPBiCG:  Solving for T, Initial residual = 0.00414755, Final residual = 3.48919e-09, No Iterations 5
DILUPBiCG:  Solving for T, Initial residual = 0.00044117, Final residual = 7.31349e-09, No Iterations 4
DILUPBiCG:  Solving for T, Initial residual = 6.63145e-05, Final residual = 3.76293e-09, No Iterations 4
 T goes from min(T) [0 0 0 0 0 0 0] -0.137428 to max(T) [0 0 0 0 0 0 0] 0.962334

ExecutionTime = 45.17 s  ClockTime = 762 s

Time = 1.8
Courant Number mean: 1.45879 max: 2.25591
DILUPBiCG:  Solving for T, Initial residual = 0.0705509, Final residual = 3.5856e-09, No Iterations 6
DILUPBiCG:  Solving for T, Initial residual = 0.00421069, Final residual = 3.12614e-09, No Iterations 5
DILUPBiCG:  Solving for T, Initial residual = 0.00045122, Final residual = 6.85941e-09, No Iterations 4
DILUPBiCG:  Solving for T, Initial residual = 6.79006e-05, Final residual = 4.13534e-09, No Iterations 4
 T goes from min(T) [0 0 0 0 0 0 0] -0.145236 to max(T) [0 0 0 0 0 0 0] 0.961212

ExecutionTime = 45.68 s  ClockTime = 768 s

Time = 1.825
Courant Number mean: 1.45012 max: 2.22053
DILUPBiCG:  Solving for T, Initial residual = 0.0711794, Final residual = 3.00516e-09, No Iterations 6
DILUPBiCG:  Solving for T, Initial residual = 0.00427674, Final residual = 2.76956e-09, No Iterations 5
DILUPBiCG:  Solving for T, Initial residual = 0.000460623, Final residual = 6.45985e-09, No Iterations 4
DILUPBiCG:  Solving for T, Initial residual = 6.94981e-05, Final residual = 4.56811e-09, No Iterations 4
 T goes from min(T) [0 0 0 0 0 0 0] -0.150689 to max(T) [0 0 0 0 0 0 0] 0.960891

ExecutionTime = 46.26 s  ClockTime = 776 s

Time = 1.85
Courant Number mean: 1.44142 max: 2.18492
DILUPBiCG:  Solving for T, Initial residual = 0.0718461, Final residual = 2.51668e-09, No Iterations 6
DILUPBiCG:  Solving for T, Initial residual = 0.00432315, Final residual = 2.4256e-09, No Iterations 5
DILUPBiCG:  Solving for T, Initial residual = 0.0004686, Final residual = 6.12277e-09, No Iterations 4
DILUPBiCG:  Solving for T, Initial residual = 7.09004e-05, Final residual = 5.28213e-09, No Iterations 4
 T goes from min(T) [0 0 0 0 0 0 0] -0.154586 to max(T) [0 0 0 0 0 0 0] 0.958486

ExecutionTime = 46.79 s  ClockTime = 783 s

Time = 1.875
Courant Number mean: 1.43264 max: 2.149
DILUPBiCG:  Solving for T, Initial residual = 0.0724379, Final residual = 2.09861e-09, No Iterations 6
DILUPBiCG:  Solving for T, Initial residual = 0.00438046, Final residual = 2.12399e-09, No Iterations 5
DILUPBiCG:  Solving for T, Initial residual = 0.000477111, Final residual = 5.76834e-09, No Iterations 4
DILUPBiCG:  Solving for T, Initial residual = 7.21535e-05, Final residual = 6.58242e-09, No Iterations 4
 T goes from min(T) [0 0 0 0 0 0 0] -0.162487 to max(T) [0 0 0 0 0 0 0] 0.959974

ExecutionTime = 47.3 s  ClockTime = 789 s

Time = 1.9
Courant Number mean: 1.42378 max: 2.11294
DILUPBiCG:  Solving for T, Initial residual = 0.0730508, Final residual = 1.73351e-09, No Iterations 6
DILUPBiCG:  Solving for T, Initial residual = 0.00443554, Final residual = 1.83925e-09, No Iterations 5
DILUPBiCG:  Solving for T, Initial residual = 0.000485215, Final residual = 5.37051e-09, No Iterations 4
DILUPBiCG:  Solving for T, Initial residual = 7.33573e-05, Final residual = 9.15758e-09, No Iterations 4
 T goes from min(T) [0 0 0 0 0 0 0] -0.1676 to max(T) [0 0 0 0 0 0 0] 0.959367

ExecutionTime = 47.82 s  ClockTime = 796 s

Time = 1.925
Courant Number mean: 1.41484 max: 2.0766
DILUPBiCG:  Solving for T, Initial residual = 0.0736881, Final residual = 1.41997e-09, No Iterations 6
DILUPBiCG:  Solving for T, Initial residual = 0.0044752, Final residual = 1.57279e-09, No Iterations 5
DILUPBiCG:  Solving for T, Initial residual = 0.000491421, Final residual = 4.99553e-09, No Iterations 4
DILUPBiCG:  Solving for T, Initial residual = 7.44139e-05, Final residual = 9.80015e-09, No Iterations 3
 T goes from min(T) [0 0 0 0 0 0 0] -0.171199 to max(T) [0 0 0 0 0 0 0] 0.958708

ExecutionTime = 48.36 s  ClockTime = 803 s

Time = 1.95
Courant Number mean: 1.40588 max: 2.04005
DILUPBiCG:  Solving for T, Initial residual = 0.0742147, Final residual = 1.15288e-09, No Iterations 6
DILUPBiCG:  Solving for T, Initial residual = 0.0045178, Final residual = 1.33853e-09, No Iterations 5
DILUPBiCG:  Solving for T, Initial residual = 0.000497696, Final residual = 4.68166e-09, No Iterations 4
DILUPBiCG:  Solving for T, Initial residual = 7.5337e-05, Final residual = 8.81544e-09, No Iterations 3
 T goes from min(T) [0 0 0 0 0 0 0] -0.177997 to max(T) [0 0 0 0 0 0 0] 0.957229

ExecutionTime = 48.9 s  ClockTime = 810 s

Time = 1.975
Courant Number mean: 1.39691 max: 2.00331
DILUPBiCG:  Solving for T, Initial residual = 0.0747903, Final residual = 9.24798e-10, No Iterations 6
DILUPBiCG:  Solving for T, Initial residual = 0.0045658, Final residual = 1.1283e-09, No Iterations 5
DILUPBiCG:  Solving for T, Initial residual = 0.000504488, Final residual = 4.37866e-09, No Iterations 4
DILUPBiCG:  Solving for T, Initial residual = 7.6115e-05, Final residual = 7.89333e-09, No Iterations 3
 T goes from min(T) [0 0 0 0 0 0 0] -0.18308 to max(T) [0 0 0 0 0 0 0] 0.956584

ExecutionTime = 49.42 s  ClockTime = 817 s

Time = 2
Courant Number mean: 1.38786 max: 1.96631
DILUPBiCG:  Solving for T, Initial residual = 0.0753778, Final residual = 7.32408e-10, No Iterations 6
DILUPBiCG:  Solving for T, Initial residual = 0.00460049, Final residual = 9.36958e-10, No Iterations 5
DILUPBiCG:  Solving for T, Initial residual = 0.000508897, Final residual = 4.05864e-09, No Iterations 4
DILUPBiCG:  Solving for T, Initial residual = 7.67065e-05, Final residual = 6.92228e-09, No Iterations 3
 T goes from min(T) [0 0 0 0 0 0 0] -0.186905 to max(T) [0 0 0 0 0 0 0] 0.957103

ExecutionTime = 49.94 s  ClockTime = 824 s

Time = 2.025
Courant Number mean: 1.37875 max: 1.92922
DILUPBiCG:  Solving for T, Initial residual = 0.0758401, Final residual = 5.71592e-10, No Iterations 6
DILUPBiCG:  Solving for T, Initial residual = 0.0046268, Final residual = 7.7142e-10, No Iterations 5
DILUPBiCG:  Solving for T, Initial residual = 0.000512952, Final residual = 3.7372e-09, No Iterations 4
DILUPBiCG:  Solving for T, Initial residual = 7.72506e-05, Final residual = 6.02713e-09, No Iterations 3
 T goes from min(T) [0 0 0 0 0 0 0] -0.19144 to max(T) [0 0 0 0 0 0 0] 0.95554

ExecutionTime = 50.47 s  ClockTime = 831 s

Time = 2.05
Courant Number mean: 1.36957 max: 1.89188
DILUPBiCG:  Solving for T, Initial residual = 0.0763151, Final residual = 8.30909e-09, No Iterations 5
DILUPBiCG:  Solving for T, Initial residual = 0.00466006, Final residual = 6.27333e-10, No Iterations 5
DILUPBiCG:  Solving for T, Initial residual = 0.000517256, Final residual = 3.46522e-09, No Iterations 4
DILUPBiCG:  Solving for T, Initial residual = 7.7728e-05, Final residual = 5.24397e-09, No Iterations 3
 T goes from min(T) [0 0 0 0 0 0 0] -0.197283 to max(T) [0 0 0 0 0 0 0] 0.954269

ExecutionTime = 50.99 s  ClockTime = 837 s

Time = 2.075
Courant Number mean: 1.36038 max: 1.85439
DILUPBiCG:  Solving for T, Initial residual = 0.0768094, Final residual = 6.58957e-09, No Iterations 5
DILUPBiCG:  Solving for T, Initial residual = 0.00468894, Final residual = 5.0183e-10, No Iterations 5
DILUPBiCG:  Solving for T, Initial residual = 0.000520965, Final residual = 3.24078e-09, No Iterations 4
DILUPBiCG:  Solving for T, Initial residual = 7.78816e-05, Final residual = 4.54166e-09, No Iterations 3
 T goes from min(T) [0 0 0 0 0 0 0] -0.200974 to max(T) [0 0 0 0 0 0 0] 0.955224

ExecutionTime = 51.52 s  ClockTime = 844 s

Time = 2.1
Courant Number mean: 1.35118 max: 1.81675
DILUPBiCG:  Solving for T, Initial residual = 0.0772501, Final residual = 5.15119e-09, No Iterations 5
DILUPBiCG:  Solving for T, Initial residual = 0.00470665, Final residual = 9.38938e-09, No Iterations 4
DILUPBiCG:  Solving for T, Initial residual = 0.000522205, Final residual = 3.05117e-09, No Iterations 4
DILUPBiCG:  Solving for T, Initial residual = 7.79194e-05, Final residual = 3.87391e-09, No Iterations 3
 T goes from min(T) [0 0 0 0 0 0 0] -0.204455 to max(T) [0 0 0 0 0 0 0] 0.952971

ExecutionTime = 52.05 s  ClockTime = 851 s

Time = 2.125
Courant Number mean: 1.34192 max: 1.77891
DILUPBiCG:  Solving for T, Initial residual = 0.0776705, Final residual = 3.95834e-09, No Iterations 5
DILUPBiCG:  Solving for T, Initial residual = 0.00471728, Final residual = 7.51417e-09, No Iterations 4
DILUPBiCG:  Solving for T, Initial residual = 0.000523547, Final residual = 2.89582e-09, No Iterations 4
DILUPBiCG:  Solving for T, Initial residual = 7.79501e-05, Final residual = 3.27929e-09, No Iterations 3
 T goes from min(T) [0 0 0 0 0 0 0] -0.209045 to max(T) [0 0 0 0 0 0 0] 0.952785

ExecutionTime = 52.58 s  ClockTime = 858 s

Time = 2.15
Courant Number mean: 1.33261 max: 1.74099
DILUPBiCG:  Solving for T, Initial residual = 0.0780561, Final residual = 2.96575e-09, No Iterations 5
DILUPBiCG:  Solving for T, Initial residual = 0.00473446, Final residual = 5.87899e-09, No Iterations 4
DILUPBiCG:  Solving for T, Initial residual = 0.000524776, Final residual = 2.8055e-09, No Iterations 4
DILUPBiCG:  Solving for T, Initial residual = 7.78597e-05, Final residual = 2.75589e-09, No Iterations 3
 T goes from min(T) [0 0 0 0 0 0 0] -0.213926 to max(T) [0 0 0 0 0 0 0] 0.953394

ExecutionTime = 53.18 s  ClockTime = 866 s

Time = 2.175
Courant Number mean: 1.32325 max: 1.7029
DILUPBiCG:  Solving for T, Initial residual = 0.0785059, Final residual = 2.17339e-09, No Iterations 5
DILUPBiCG:  Solving for T, Initial residual = 0.00475135, Final residual = 4.53751e-09, No Iterations 4
DILUPBiCG:  Solving for T, Initial residual = 0.000525495, Final residual = 2.89414e-09, No Iterations 4
DILUPBiCG:  Solving for T, Initial residual = 7.75134e-05, Final residual = 2.27501e-09, No Iterations 3
 T goes from min(T) [0 0 0 0 0 0 0] -0.217015 to max(T) [0 0 0 0 0 0 0] 0.951143

ExecutionTime = 53.69 s  ClockTime = 873 s

Time = 2.2
Courant Number mean: 1.31389 max: 1.66469
DILUPBiCG:  Solving for T, Initial residual = 0.0789082, Final residual = 1.55345e-09, No Iterations 5
DILUPBiCG:  Solving for T, Initial residual = 0.00475389, Final residual = 3.43452e-09, No Iterations 4
DILUPBiCG:  Solving for T, Initial residual = 0.000524136, Final residual = 3.37511e-09, No Iterations 4
DILUPBiCG:  Solving for T, Initial residual = 7.70178e-05, Final residual = 1.83189e-09, No Iterations 3
 T goes from min(T) [0 0 0 0 0 0 0] -0.220011 to max(T) [0 0 0 0 0 0 0] 0.951127

ExecutionTime = 54.21 s  ClockTime = 879 s

Time = 2.225
Courant Number mean: 1.30451 max: 1.62638
DILUPBiCG:  Solving for T, Initial residual = 0.0792862, Final residual = 1.07418e-09, No Iterations 5
DILUPBiCG:  Solving for T, Initial residual = 0.00474845, Final residual = 2.52617e-09, No Iterations 4
DILUPBiCG:  Solving for T, Initial residual = 0.000522886, Final residual = 9.33278e-09, No Iterations 3
DILUPBiCG:  Solving for T, Initial residual = 7.65311e-05, Final residual = 1.44832e-09, No Iterations 3
 T goes from min(T) [0 0 0 0 0 0 0] -0.223321 to max(T) [0 0 0 0 0 0 0] 0.950644

ExecutionTime = 54.73 s  ClockTime = 886 s

Time = 2.25
Courant Number mean: 1.2951 max: 1.58793
DILUPBiCG:  Solving for T, Initial residual = 0.0796195, Final residual = 7.14106e-10, No Iterations 5
DILUPBiCG:  Solving for T, Initial residual = 0.0047463, Final residual = 1.79462e-09, No Iterations 4
DILUPBiCG:  Solving for T, Initial residual = 0.00052074, Final residual = 7.27268e-09, No Iterations 3
DILUPBiCG:  Solving for T, Initial residual = 7.59646e-05, Final residual = 1.12824e-09, No Iterations 3
 T goes from min(T) [0 0 0 0 0 0 0] -0.228282 to max(T) [0 0 0 0 0 0 0] 0.951152

ExecutionTime = 55.26 s  ClockTime = 893 s

Time = 2.275
Courant Number mean: 1.28565 max: 1.54943
DILUPBiCG:  Solving for T, Initial residual = 0.0799509, Final residual = 4.55864e-10, No Iterations 5
DILUPBiCG:  Solving for T, Initial residual = 0.00474872, Final residual = 1.22545e-09, No Iterations 4
DILUPBiCG:  Solving for T, Initial residual = 0.000518888, Final residual = 5.49867e-09, No Iterations 3
DILUPBiCG:  Solving for T, Initial residual = 7.52364e-05, Final residual = 8.57303e-10, No Iterations 3
 T goes from min(T) [0 0 0 0 0 0 0] -0.231477 to max(T) [0 0 0 0 0 0 0] 0.947686

ExecutionTime = 55.78 s  ClockTime = 900 s

Time = 2.3
Courant Number mean: 1.27618 max: 1.51082
DILUPBiCG:  Solving for T, Initial residual = 0.0802681, Final residual = 2.76364e-10, No Iterations 5
DILUPBiCG:  Solving for T, Initial residual = 0.00474338, Final residual = 8.00131e-10, No Iterations 4
DILUPBiCG:  Solving for T, Initial residual = 0.000516359, Final residual = 4.02595e-09, No Iterations 3
DILUPBiCG:  Solving for T, Initial residual = 7.44049e-05, Final residual = 6.28838e-10, No Iterations 3
 T goes from min(T) [0 0 0 0 0 0 0] -0.234094 to max(T) [0 0 0 0 0 0 0] 0.949467

ExecutionTime = 56.31 s  ClockTime = 907 s

Time = 2.325
Courant Number mean: 1.2667 max: 1.47213
DILUPBiCG:  Solving for T, Initial residual = 0.0805241, Final residual = 7.89694e-09, No Iterations 4
DILUPBiCG:  Solving for T, Initial residual = 0.00473066, Final residual = 4.93968e-10, No Iterations 4
DILUPBiCG:  Solving for T, Initial residual = 0.000513176, Final residual = 2.88194e-09, No Iterations 3
DILUPBiCG:  Solving for T, Initial residual = 7.34263e-05, Final residual = 4.43693e-10, No Iterations 3
 T goes from min(T) [0 0 0 0 0 0 0] -0.236211 to max(T) [0 0 0 0 0 0 0] 0.948724

ExecutionTime = 56.85 s  ClockTime = 914 s

Time = 2.35
Courant Number mean: 1.25721 max: 1.43339
DILUPBiCG:  Solving for T, Initial residual = 0.0807394, Final residual = 4.57314e-09, No Iterations 4
DILUPBiCG:  Solving for T, Initial residual = 0.00471098, Final residual = 2.81928e-10, No Iterations 4
DILUPBiCG:  Solving for T, Initial residual = 0.000509441, Final residual = 2.0014e-09, No Iterations 3
DILUPBiCG:  Solving for T, Initial residual = 7.23537e-05, Final residual = 3.06286e-10, No Iterations 3
 T goes from min(T) [0 0 0 0 0 0 0] -0.239513 to max(T) [0 0 0 0 0 0 0] 0.949335

ExecutionTime = 57.42 s  ClockTime = 921 s

Time = 2.375
Courant Number mean: 1.2477 max: 1.39457
DILUPBiCG:  Solving for T, Initial residual = 0.0809642, Final residual = 2.39151e-09, No Iterations 4
DILUPBiCG:  Solving for T, Initial residual = 0.00469399, Final residual = 1.43365e-10, No Iterations 4
DILUPBiCG:  Solving for T, Initial residual = 0.000504517, Final residual = 1.35796e-09, No Iterations 3
DILUPBiCG:  Solving for T, Initial residual = 7.11979e-05, Final residual = 2.09755e-10, No Iterations 3
 T goes from min(T) [0 0 0 0 0 0 0] -0.243746 to max(T) [0 0 0 0 0 0 0] 0.946921

ExecutionTime = 57.95 s  ClockTime = 928 s

Time = 2.4
Courant Number mean: 1.23817 max: 1.35572
DILUPBiCG:  Solving for T, Initial residual = 0.0811887, Final residual = 1.084e-09, No Iterations 4
DILUPBiCG:  Solving for T, Initial residual = 0.00467451, Final residual = 6.03823e-11, No Iterations 4
DILUPBiCG:  Solving for T, Initial residual = 0.000498964, Final residual = 1.00535e-09, No Iterations 3
DILUPBiCG:  Solving for T, Initial residual = 6.99672e-05, Final residual = 8.8484e-09, No Iterations 2
 T goes from min(T) [0 0 0 0 0 0 0] -0.246525 to max(T) [0 0 0 0 0 0 0] 0.948087

ExecutionTime = 58.46 s  ClockTime = 935 s

Time = 2.425
Courant Number mean: 1.22863 max: 1.31682
DILUPBiCG:  Solving for T, Initial residual = 0.0814287, Final residual = 3.96574e-10, No Iterations 4
DILUPBiCG:  Solving for T, Initial residual = 0.00465387, Final residual = 7.5151e-09, No Iterations 3
DILUPBiCG:  Solving for T, Initial residual = 0.000493503, Final residual = 4.07527e-09, No Iterations 3
DILUPBiCG:  Solving for T, Initial residual = 6.86702e-05, Final residual = 5.57574e-09, No Iterations 2
 T goes from min(T) [0 0 0 0 0 0 0] -0.248531 to max(T) [0 0 0 0 0 0 0] 0.948295

ExecutionTime = 58.98 s  ClockTime = 941 s

Time = 2.45
Courant Number mean: 1.21909 max: 1.2779
DILUPBiCG:  Solving for T, Initial residual = 0.0816364, Final residual = 9.70142e-11, No Iterations 4
DILUPBiCG:  Solving for T, Initial residual = 0.00462702, Final residual = 9.46015e-10, No Iterations 3
DILUPBiCG:  Solving for T, Initial residual = 0.000487559, Final residual = 1.49573e-10, No Iterations 3
DILUPBiCG:  Solving for T, Initial residual = 6.73253e-05, Final residual = 3.04959e-09, No Iterations 2
 T goes from min(T) [0 0 0 0 0 0 0] -0.250183 to max(T) [0 0 0 0 0 0 0] 0.947199

ExecutionTime = 59.5 s  ClockTime = 948 s

Time = 2.475
Courant Number mean: 1.20955 max: 1.23895
DILUPBiCG:  Solving for T, Initial residual = 0.0818069, Final residual = 2.90022e-09, No Iterations 3
DILUPBiCG:  Solving for T, Initial residual = 0.00459335, Final residual = 1.19984e-10, No Iterations 3
DILUPBiCG:  Solving for T, Initial residual = 0.000480997, Final residual = 4.94143e-09, No Iterations 2
DILUPBiCG:  Solving for T, Initial residual = 6.59608e-05, Final residual = 8.7479e-10, No Iterations 2
 T goes from min(T) [0 0 0 0 0 0 0] -0.251557 to max(T) [0 0 0 0 0 0 0] 0.94723

ExecutionTime = 60 s  ClockTime = 955 s

Time = 2.5
Courant Number mean: 1.2 max: 1.2
DILUPBiCG:  Solving for T, Initial residual = 0.0819143, Final residual = 2.66718e-18, No Iterations 2
DILUPBiCG:  Solving for T, Initial residual = 0.00455611, Final residual = 2.01146e-19, No Iterations 2
DILUPBiCG:  Solving for T, Initial residual = 0.000474242, Final residual = 1.85731e-20, No Iterations 2
DILUPBiCG:  Solving for T, Initial residual = 6.45445e-05, Final residual = 4.91131e-21, No Iterations 2
 T goes from min(T) [0 0 0 0 0 0 0] -0.255133 to max(T) [0 0 0 0 0 0 0] 0.945308

ExecutionTime = 60.55 s  ClockTime = 962 s

Time = 2.525
Courant Number mean: 1.20955 max: 1.23895
DILUPBiCG:  Solving for T, Initial residual = 0.081999, Final residual = 3.48214e-09, No Iterations 3
DILUPBiCG:  Solving for T, Initial residual = 0.00454381, Final residual = 1.08111e-10, No Iterations 3
DILUPBiCG:  Solving for T, Initial residual = 0.000470366, Final residual = 4.21294e-09, No Iterations 2
DILUPBiCG:  Solving for T, Initial residual = 6.35601e-05, Final residual = 6.98774e-10, No Iterations 2
 T goes from min(T) [0 0 0 0 0 0 0] -0.259082 to max(T) [0 0 0 0 0 0 0] 0.946952

ExecutionTime = 61.12 s  ClockTime = 969 s

Time = 2.55
Courant Number mean: 1.21909 max: 1.2779
DILUPBiCG:  Solving for T, Initial residual = 0.0820611, Final residual = 1.05393e-10, No Iterations 4
DILUPBiCG:  Solving for T, Initial residual = 0.00453129, Final residual = 7.41707e-10, No Iterations 3
DILUPBiCG:  Solving for T, Initial residual = 0.000465852, Final residual = 7.16389e-11, No Iterations 3
DILUPBiCG:  Solving for T, Initial residual = 6.25081e-05, Final residual = 3.42886e-09, No Iterations 2
 T goes from min(T) [0 0 0 0 0 0 0] -0.261441 to max(T) [0 0 0 0 0 0 0] 0.947798

ExecutionTime = 61.68 s  ClockTime = 977 s

Time = 2.575
Courant Number mean: 1.22863 max: 1.31682
DILUPBiCG:  Solving for T, Initial residual = 0.0820948, Final residual = 5.46208e-10, No Iterations 4
DILUPBiCG:  Solving for T, Initial residual = 0.00451887, Final residual = 2.35147e-09, No Iterations 3
DILUPBiCG:  Solving for T, Initial residual = 0.000461374, Final residual = 2.30935e-10, No Iterations 3
DILUPBiCG:  Solving for T, Initial residual = 6.13785e-05, Final residual = 6.69869e-09, No Iterations 2
 T goes from min(T) [0 0 0 0 0 0 0] -0.262932 to max(T) [0 0 0 0 0 0 0] 0.947332

ExecutionTime = 62.22 s  ClockTime = 983 s

Time = 2.6
Courant Number mean: 1.23817 max: 1.35572
DILUPBiCG:  Solving for T, Initial residual = 0.0821534, Final residual = 1.52698e-09, No Iterations 4
DILUPBiCG:  Solving for T, Initial residual = 0.00450161, Final residual = 5.59575e-09, No Iterations 3
DILUPBiCG:  Solving for T, Initial residual = 0.000456425, Final residual = 8.9892e-10, No Iterations 3
DILUPBiCG:  Solving for T, Initial residual = 6.02312e-05, Final residual = 6.93602e-11, No Iterations 3
 T goes from min(T) [0 0 0 0 0 0 0] -0.264044 to max(T) [0 0 0 0 0 0 0] 0.945793

ExecutionTime = 62.73 s  ClockTime = 990 s

Time = 2.625
Courant Number mean: 1.2477 max: 1.39457
DILUPBiCG:  Solving for T, Initial residual = 0.0821957, Final residual = 3.29301e-09, No Iterations 4
DILUPBiCG:  Solving for T, Initial residual = 0.00447869, Final residual = 1.47263e-10, No Iterations 4
DILUPBiCG:  Solving for T, Initial residual = 0.000450689, Final residual = 3.31448e-09, No Iterations 3
DILUPBiCG:  Solving for T, Initial residual = 5.90228e-05, Final residual = 1.32985e-10, No Iterations 3
 T goes from min(T) [0 0 0 0 0 0 0] -0.26495 to max(T) [0 0 0 0 0 0 0] 0.944796

ExecutionTime = 63.25 s  ClockTime = 997 s

Time = 2.65
Courant Number mean: 1.25721 max: 1.43339
DILUPBiCG:  Solving for T, Initial residual = 0.0821962, Final residual = 6.41007e-09, No Iterations 4
DILUPBiCG:  Solving for T, Initial residual = 0.0044517, Final residual = 2.94288e-10, No Iterations 4
DILUPBiCG:  Solving for T, Initial residual = 0.00044455, Final residual = 1.7821e-09, No Iterations 3
DILUPBiCG:  Solving for T, Initial residual = 5.7816e-05, Final residual = 2.23333e-10, No Iterations 3
 T goes from min(T) [0 0 0 0 0 0 0] -0.265542 to max(T) [0 0 0 0 0 0 0] 0.944267

ExecutionTime = 63.8 s  ClockTime = 1004 s

Time = 2.675
Courant Number mean: 1.2667 max: 1.47213
DILUPBiCG:  Solving for T, Initial residual = 0.0821648, Final residual = 1.79608e-10, No Iterations 5
DILUPBiCG:  Solving for T, Initial residual = 0.0044236, Final residual = 5.39888e-10, No Iterations 4
DILUPBiCG:  Solving for T, Initial residual = 0.000438164, Final residual = 2.35542e-09, No Iterations 3
DILUPBiCG:  Solving for T, Initial residual = 5.66164e-05, Final residual = 3.38643e-10, No Iterations 3
 T goes from min(T) [0 0 0 0 0 0 0] -0.265936 to max(T) [0 0 0 0 0 0 0] 0.945754

ExecutionTime = 64.32 s  ClockTime = 1011 s

Time = 2.7
Courant Number mean: 1.27618 max: 1.51082
DILUPBiCG:  Solving for T, Initial residual = 0.0821189, Final residual = 3.26753e-10, No Iterations 5
DILUPBiCG:  Solving for T, Initial residual = 0.00439195, Final residual = 8.52896e-10, No Iterations 4
DILUPBiCG:  Solving for T, Initial residual = 0.000431894, Final residual = 3.32867e-09, No Iterations 3
DILUPBiCG:  Solving for T, Initial residual = 5.53614e-05, Final residual = 4.7561e-10, No Iterations 3
 T goes from min(T) [0 0 0 0 0 0 0] -0.267985 to max(T) [0 0 0 0 0 0 0] 0.946624

ExecutionTime = 64.84 s  ClockTime = 1018 s

Time = 2.725
Courant Number mean: 1.28565 max: 1.54943
DILUPBiCG:  Solving for T, Initial residual = 0.0820538, Final residual = 5.43267e-10, No Iterations 5
DILUPBiCG:  Solving for T, Initial residual = 0.00436127, Final residual = 1.23173e-09, No Iterations 4
DILUPBiCG:  Solving for T, Initial residual = 0.000425292, Final residual = 4.46515e-09, No Iterations 3
DILUPBiCG:  Solving for T, Initial residual = 5.40763e-05, Final residual = 6.33314e-10, No Iterations 3
 T goes from min(T) [0 0 0 0 0 0 0] -0.271947 to max(T) [0 0 0 0 0 0 0] 0.947027

ExecutionTime = 65.41 s  ClockTime = 1025 s

Time = 2.75
Courant Number mean: 1.2951 max: 1.58793
DILUPBiCG:  Solving for T, Initial residual = 0.0819527, Final residual = 8.39829e-10, No Iterations 5
DILUPBiCG:  Solving for T, Initial residual = 0.00432758, Final residual = 1.69971e-09, No Iterations 4
DILUPBiCG:  Solving for T, Initial residual = 0.000418323, Final residual = 5.75752e-09, No Iterations 3
DILUPBiCG:  Solving for T, Initial residual = 5.2791e-05, Final residual = 8.0791e-10, No Iterations 3
 T goes from min(T) [0 0 0 0 0 0 0] -0.275096 to max(T) [0 0 0 0 0 0 0] 0.947099

ExecutionTime = 65.93 s  ClockTime = 1032 s

Time = 2.775
Courant Number mean: 1.30451 max: 1.62638
DILUPBiCG:  Solving for T, Initial residual = 0.0818135, Final residual = 1.21974e-09, No Iterations 5
DILUPBiCG:  Solving for T, Initial residual = 0.00429086, Final residual = 2.26844e-09, No Iterations 4
DILUPBiCG:  Solving for T, Initial residual = 0.000411321, Final residual = 7.18799e-09, No Iterations 3
DILUPBiCG:  Solving for T, Initial residual = 5.15122e-05, Final residual = 9.94165e-10, No Iterations 3
 T goes from min(T) [0 0 0 0 0 0 0] -0.277701 to max(T) [0 0 0 0 0 0 0] 0.946962

ExecutionTime = 66.46 s  ClockTime = 1039 s

Time = 2.8
Courant Number mean: 1.31389 max: 1.66469
DILUPBiCG:  Solving for T, Initial residual = 0.0816648, Final residual = 1.68247e-09, No Iterations 5
DILUPBiCG:  Solving for T, Initial residual = 0.00425152, Final residual = 2.93353e-09, No Iterations 4
DILUPBiCG:  Solving for T, Initial residual = 0.000404603, Final residual = 8.73603e-09, No Iterations 3
DILUPBiCG:  Solving for T, Initial residual = 5.02504e-05, Final residual = 1.18865e-09, No Iterations 3
 T goes from min(T) [0 0 0 0 0 0 0] -0.279892 to max(T) [0 0 0 0 0 0 0] 0.946717

ExecutionTime = 66.99 s  ClockTime = 1046 s

Time = 2.825
Courant Number mean: 1.32325 max: 1.7029
DILUPBiCG:  Solving for T, Initial residual = 0.0815026, Final residual = 2.24254e-09, No Iterations 5
DILUPBiCG:  Solving for T, Initial residual = 0.00421089, Final residual = 3.7077e-09, No Iterations 4
DILUPBiCG:  Solving for T, Initial residual = 0.000397698, Final residual = 2.90316e-10, No Iterations 4
DILUPBiCG:  Solving for T, Initial residual = 4.90287e-05, Final residual = 1.39007e-09, No Iterations 3
 T goes from min(T) [0 0 0 0 0 0 0] -0.281695 to max(T) [0 0 0 0 0 0 0] 0.946451

ExecutionTime = 67.51 s  ClockTime = 1053 s

Time = 2.85
Courant Number mean: 1.33261 max: 1.74099
DILUPBiCG:  Solving for T, Initial residual = 0.0813302, Final residual = 2.91502e-09, No Iterations 5
DILUPBiCG:  Solving for T, Initial residual = 0.00416859, Final residual = 4.60307e-09, No Iterations 4
DILUPBiCG:  Solving for T, Initial residual = 0.000390753, Final residual = 3.67084e-10, No Iterations 4
DILUPBiCG:  Solving for T, Initial residual = 4.78661e-05, Final residual = 1.59821e-09, No Iterations 3
 T goes from min(T) [0 0 0 0 0 0 0] -0.283301 to max(T) [0 0 0 0 0 0 0] 0.946228

ExecutionTime = 68.06 s  ClockTime = 1060 s

Time = 2.875
Courant Number mean: 1.34192 max: 1.77891
DILUPBiCG:  Solving for T, Initial residual = 0.0811469, Final residual = 3.70557e-09, No Iterations 5
DILUPBiCG:  Solving for T, Initial residual = 0.0041248, Final residual = 5.63156e-09, No Iterations 4
DILUPBiCG:  Solving for T, Initial residual = 0.000383418, Final residual = 4.53986e-10, No Iterations 4
DILUPBiCG:  Solving for T, Initial residual = 4.67256e-05, Final residual = 1.81372e-09, No Iterations 3
 T goes from min(T) [0 0 0 0 0 0 0] -0.284779 to max(T) [0 0 0 0 0 0 0] 0.946092

ExecutionTime = 68.61 s  ClockTime = 1067 s

Time = 2.9
Courant Number mean: 1.35118 max: 1.81675
DILUPBiCG:  Solving for T, Initial residual = 0.0809096, Final residual = 4.62479e-09, No Iterations 5
DILUPBiCG:  Solving for T, Initial residual = 0.00407884, Final residual = 6.77569e-09, No Iterations 4
DILUPBiCG:  Solving for T, Initial residual = 0.000375594, Final residual = 5.53849e-10, No Iterations 4
DILUPBiCG:  Solving for T, Initial residual = 4.55618e-05, Final residual = 2.03041e-09, No Iterations 3
 T goes from min(T) [0 0 0 0 0 0 0] -0.286027 to max(T) [0 0 0 0 0 0 0] 0.946066

ExecutionTime = 69.15 s  ClockTime = 1074 s

Time = 2.925
Courant Number mean: 1.36038 max: 1.85439
DILUPBiCG:  Solving for T, Initial residual = 0.0806406, Final residual = 5.69774e-09, No Iterations 5
DILUPBiCG:  Solving for T, Initial residual = 0.00402978, Final residual = 8.05208e-09, No Iterations 4
DILUPBiCG:  Solving for T, Initial residual = 0.000367956, Final residual = 6.65085e-10, No Iterations 4
DILUPBiCG:  Solving for T, Initial residual = 4.44018e-05, Final residual = 2.25041e-09, No Iterations 3
 T goes from min(T) [0 0 0 0 0 0 0] -0.287058 to max(T) [0 0 0 0 0 0 0] 0.946149

ExecutionTime = 69.74 s  ClockTime = 1082 s

Time = 2.95
Courant Number mean: 1.36957 max: 1.89188
DILUPBiCG:  Solving for T, Initial residual = 0.0803942, Final residual = 6.94957e-09, No Iterations 5
DILUPBiCG:  Solving for T, Initial residual = 0.0039793, Final residual = 9.46648e-09, No Iterations 4
DILUPBiCG:  Solving for T, Initial residual = 0.000360584, Final residual = 7.8516e-10, No Iterations 4
DILUPBiCG:  Solving for T, Initial residual = 4.3289e-05, Final residual = 2.46916e-09, No Iterations 3
 T goes from min(T) [0 0 0 0 0 0 0] -0.288779 to max(T) [0 0 0 0 0 0 0] 0.946318

ExecutionTime = 70.33 s  ClockTime = 1090 s

Time = 2.975
Courant Number mean: 1.37875 max: 1.92922
DILUPBiCG:  Solving for T, Initial residual = 0.0801177, Final residual = 8.39812e-09, No Iterations 5
DILUPBiCG:  Solving for T, Initial residual = 0.00392834, Final residual = 5.20795e-10, No Iterations 5
DILUPBiCG:  Solving for T, Initial residual = 0.00035359, Final residual = 9.13695e-10, No Iterations 4
DILUPBiCG:  Solving for T, Initial residual = 4.22226e-05, Final residual = 2.68511e-09, No Iterations 3
 T goes from min(T) [0 0 0 0 0 0 0] -0.290601 to max(T) [0 0 0 0 0 0 0] 0.946528

ExecutionTime = 70.87 s  ClockTime = 1096 s

Time = 3
Courant Number mean: 1.38786 max: 1.96631
DILUPBiCG:  Solving for T, Initial residual = 0.0798139, Final residual = 5.89961e-10, No Iterations 6
DILUPBiCG:  Solving for T, Initial residual = 0.00387721, Final residual = 6.25483e-10, No Iterations 5
DILUPBiCG:  Solving for T, Initial residual = 0.000346551, Final residual = 1.05166e-09, No Iterations 4
DILUPBiCG:  Solving for T, Initial residual = 4.1159e-05, Final residual = 2.89165e-09, No Iterations 3
 T goes from min(T) [0 0 0 0 0 0 0] -0.292239 to max(T) [0 0 0 0 0 0 0] 0.946714

ExecutionTime = 71.43 s  ClockTime = 1104 s

Time = 3.025
Courant Number mean: 1.39691 max: 2.00331
DILUPBiCG:  Solving for T, Initial residual = 0.0794648, Final residual = 7.36705e-10, No Iterations 6
DILUPBiCG:  Solving for T, Initial residual = 0.00382503, Final residual = 7.41878e-10, No Iterations 5
DILUPBiCG:  Solving for T, Initial residual = 0.000339681, Final residual = 1.20279e-09, No Iterations 4
DILUPBiCG:  Solving for T, Initial residual = 4.01613e-05, Final residual = 3.09106e-09, No Iterations 3
 T goes from min(T) [0 0 0 0 0 0 0] -0.294138 to max(T) [0 0 0 0 0 0 0] 0.946745

ExecutionTime = 72 s  ClockTime = 1111 s

Time = 3.05
Courant Number mean: 1.40588 max: 2.04005
DILUPBiCG:  Solving for T, Initial residual = 0.07908, Final residual = 9.1426e-10, No Iterations 6
DILUPBiCG:  Solving for T, Initial residual = 0.00377129, Final residual = 8.72608e-10, No Iterations 5
DILUPBiCG:  Solving for T, Initial residual = 0.000332576, Final residual = 1.36003e-09, No Iterations 4
DILUPBiCG:  Solving for T, Initial residual = 3.92292e-05, Final residual = 3.28277e-09, No Iterations 3
 T goes from min(T) [0 0 0 0 0 0 0] -0.295493 to max(T) [0 0 0 0 0 0 0] 0.946548

ExecutionTime = 72.55 s  ClockTime = 1118 s

Time = 3.075
Courant Number mean: 1.41484 max: 2.0766
DILUPBiCG:  Solving for T, Initial residual = 0.0787129, Final residual = 1.12477e-09, No Iterations 6
DILUPBiCG:  Solving for T, Initial residual = 0.00371897, Final residual = 1.0186e-09, No Iterations 5
DILUPBiCG:  Solving for T, Initial residual = 0.000325467, Final residual = 1.51894e-09, No Iterations 4
DILUPBiCG:  Solving for T, Initial residual = 3.83424e-05, Final residual = 3.46945e-09, No Iterations 3
 T goes from min(T) [0 0 0 0 0 0 0] -0.296127 to max(T) [0 0 0 0 0 0 0] 0.945967

ExecutionTime = 73.09 s  ClockTime = 1125 s

Time = 3.1
Courant Number mean: 1.42378 max: 2.11294
DILUPBiCG:  Solving for T, Initial residual = 0.0783374, Final residual = 1.36931e-09, No Iterations 6
DILUPBiCG:  Solving for T, Initial residual = 0.00366488, Final residual = 1.18069e-09, No Iterations 5
DILUPBiCG:  Solving for T, Initial residual = 0.000318693, Final residual = 1.68352e-09, No Iterations 4
DILUPBiCG:  Solving for T, Initial residual = 3.74854e-05, Final residual = 3.63477e-09, No Iterations 3
 T goes from min(T) [0 0 0 0 0 0 0] -0.297404 to max(T) [0 0 0 0 0 0 0] 0.945199

ExecutionTime = 73.62 s  ClockTime = 1132 s

Time = 3.125
Courant Number mean: 1.43264 max: 2.149
DILUPBiCG:  Solving for T, Initial residual = 0.0778996, Final residual = 1.67204e-09, No Iterations 6
DILUPBiCG:  Solving for T, Initial residual = 0.00360767, Final residual = 1.35126e-09, No Iterations 5
DILUPBiCG:  Solving for T, Initial residual = 0.000312006, Final residual = 1.86075e-09, No Iterations 4
DILUPBiCG:  Solving for T, Initial residual = 3.66299e-05, Final residual = 3.7993e-09, No Iterations 3
 T goes from min(T) [0 0 0 0 0 0 0] -0.298216 to max(T) [0 0 0 0 0 0 0] 0.946928

ExecutionTime = 74.16 s  ClockTime = 1139 s

Time = 3.15
Courant Number mean: 1.44142 max: 2.18492
DILUPBiCG:  Solving for T, Initial residual = 0.0774524, Final residual = 2.14391e-09, No Iterations 6
DILUPBiCG:  Solving for T, Initial residual = 0.00354934, Final residual = 1.54148e-09, No Iterations 5
DILUPBiCG:  Solving for T, Initial residual = 0.0003052, Final residual = 2.04515e-09, No Iterations 4
DILUPBiCG:  Solving for T, Initial residual = 3.58006e-05, Final residual = 3.94212e-09, No Iterations 3
 T goes from min(T) [0 0 0 0 0 0 0] -0.3001 to max(T) [0 0 0 0 0 0 0] 0.947968

ExecutionTime = 74.7 s  ClockTime = 1146 s

Time = 3.175
Courant Number mean: 1.45012 max: 2.22053
DILUPBiCG:  Solving for T, Initial residual = 0.0769575, Final residual = 4.42962e-09, No Iterations 6
DILUPBiCG:  Solving for T, Initial residual = 0.00349523, Final residual = 1.7507e-09, No Iterations 5
DILUPBiCG:  Solving for T, Initial residual = 0.00029842, Final residual = 2.22266e-09, No Iterations 4
DILUPBiCG:  Solving for T, Initial residual = 3.49997e-05, Final residual = 4.04714e-09, No Iterations 3
 T goes from min(T) [0 0 0 0 0 0 0] -0.300302 to max(T) [0 0 0 0 0 0 0] 0.948083

ExecutionTime = 75.23 s  ClockTime = 1153 s

Time = 3.2
Courant Number mean: 1.45879 max: 2.25591
DILUPBiCG:  Solving for T, Initial residual = 0.0764355, Final residual = 2.48877e-10, No Iterations 7
DILUPBiCG:  Solving for T, Initial residual = 0.0034478, Final residual = 1.9665e-09, No Iterations 5
DILUPBiCG:  Solving for T, Initial residual = 0.000292276, Final residual = 2.40177e-09, No Iterations 4
DILUPBiCG:  Solving for T, Initial residual = 3.42727e-05, Final residual = 4.17708e-09, No Iterations 3
 T goes from min(T) [0 0 0 0 0 0 0] -0.30219 to max(T) [0 0 0 0 0 0 0] 0.947028

ExecutionTime = 75.75 s  ClockTime = 1160 s

Time = 3.225
Courant Number mean: 1.46744 max: 2.29104
DILUPBiCG:  Solving for T, Initial residual = 0.0759477, Final residual = 5.74594e-09, No Iterations 6
DILUPBiCG:  Solving for T, Initial residual = 0.00340132, Final residual = 2.19422e-09, No Iterations 5
DILUPBiCG:  Solving for T, Initial residual = 0.000286296, Final residual = 2.59707e-09, No Iterations 4
DILUPBiCG:  Solving for T, Initial residual = 3.35687e-05, Final residual = 4.30944e-09, No Iterations 3
 T goes from min(T) [0 0 0 0 0 0 0] -0.301772 to max(T) [0 0 0 0 0 0 0] 0.946119

ExecutionTime = 76.27 s  ClockTime = 1166 s

Time = 3.25
Courant Number mean: 1.47599 max: 2.32583
DILUPBiCG:  Solving for T, Initial residual = 0.0754263, Final residual = 5.8997e-09, No Iterations 6
DILUPBiCG:  Solving for T, Initial residual = 0.00335627, Final residual = 2.44844e-09, No Iterations 5
DILUPBiCG:  Solving for T, Initial residual = 0.000280568, Final residual = 2.79512e-09, No Iterations 4
DILUPBiCG:  Solving for T, Initial residual = 3.28961e-05, Final residual = 4.36213e-09, No Iterations 3
 T goes from min(T) [0 0 0 0 0 0 0] -0.30346 to max(T) [0 0 0 0 0 0 0] 0.947783

ExecutionTime = 76.79 s  ClockTime = 1172 s

Time = 3.275
Courant Number mean: 1.48445 max: 2.36046
DILUPBiCG:  Solving for T, Initial residual = 0.0748488, Final residual = 7.26127e-09, No Iterations 6
DILUPBiCG:  Solving for T, Initial residual = 0.0033112, Final residual = 2.71318e-09, No Iterations 5
DILUPBiCG:  Solving for T, Initial residual = 0.000274863, Final residual = 2.99412e-09, No Iterations 4
DILUPBiCG:  Solving for T, Initial residual = 3.22506e-05, Final residual = 4.44946e-09, No Iterations 3
 T goes from min(T) [0 0 0 0 0 0 0] -0.304565 to max(T) [0 0 0 0 0 0 0] 0.94761

ExecutionTime = 77.33 s  ClockTime = 1179 s

Time = 3.3
Courant Number mean: 1.49281 max: 2.39472
DILUPBiCG:  Solving for T, Initial residual = 0.0742615, Final residual = 4.23382e-10, No Iterations 7
DILUPBiCG:  Solving for T, Initial residual = 0.00326744, Final residual = 2.9846e-09, No Iterations 5
DILUPBiCG:  Solving for T, Initial residual = 0.000269182, Final residual = 3.2131e-09, No Iterations 4
[...]
DILUPBiCG:  Solving for T, Initial residual = 9.08889e-05, Final residual = 1.06993e-09, No Iterations 5
 T goes from min(T) [0 0 0 0 0 0 0] -0.320411 to max(T) [0 0 0 0 0 0 0] 0.931998

ExecutionTime = 120.49 s  ClockTime = 1631 s

Time = 5.2
Courant Number mean: 1.86545 max: 3.66038
DILUPBiCG:  Solving for T, Initial residual = 0.0477747, Final residual = 8.48423e-09, No Iterations 8
DILUPBiCG:  Solving for T, Initial residual = 0.00333232, Final residual = 6.26499e-09, No Iterations 6
DILUPBiCG:  Solving for T, Initial residual = 0.000467047, Final residual = 5.53401e-09, No Iterations 5
DILUPBiCG:  Solving for T, Initial residual = 9.54817e-05, Final residual = 1.06238e-09, No Iterations 5
 T goes from min(T) [0 0 0 0 0 0 0] -0.314309 to max(T) [0 0 0 0 0 0 0] 0.932379

ExecutionTime = 121.03 s  ClockTime = 1637 s

Time = 5.225
Courant Number mean: 1.86366 max: 3.65524
DILUPBiCG:  Solving for T, Initial residual = 0.0480729, Final residual = 4.35741e-09, No Iterations 8
DILUPBiCG:  Solving for T, Initial residual = 0.00344295, Final residual = 7.22008e-09, No Iterations 6
DILUPBiCG:  Solving for T, Initial residual = 0.000489242, Final residual = 5.67028e-09, No Iterations 5
DILUPBiCG:  Solving for T, Initial residual = 0.000100454, Final residual = 1.04428e-09, No Iterations 5
 T goes from min(T) [0 0 0 0 0 0 0] -0.308221 to max(T) [0 0 0 0 0 0 0] 0.930963

ExecutionTime = 121.57 s  ClockTime = 1642 s

Time = 5.25
Courant Number mean: 1.8616 max: 3.64932
DILUPBiCG:  Solving for T, Initial residual = 0.0484064, Final residual = 2.65886e-09, No Iterations 8
DILUPBiCG:  Solving for T, Initial residual = 0.00354884, Final residual = 2.42721e-09, No Iterations 7
DILUPBiCG:  Solving for T, Initial residual = 0.000512829, Final residual = 5.12774e-09, No Iterations 5
DILUPBiCG:  Solving for T, Initial residual = 0.000105853, Final residual = 1.18587e-09, No Iterations 5
 T goes from min(T) [0 0 0 0 0 0 0] -0.309285 to max(T) [0 0 0 0 0 0 0] 0.930395

ExecutionTime = 122.11 s  ClockTime = 1647 s

Time = 5.275
Courant Number mean: 1.85925 max: 3.64305
DILUPBiCG:  Solving for T, Initial residual = 0.0487752, Final residual = 1.9667e-09, No Iterations 8
DILUPBiCG:  Solving for T, Initial residual = 0.00366503, Final residual = 1.34202e-09, No Iterations 7
DILUPBiCG:  Solving for T, Initial residual = 0.000537377, Final residual = 5.22813e-09, No Iterations 5
DILUPBiCG:  Solving for T, Initial residual = 0.000111832, Final residual = 8.03292e-09, No Iterations 4
 T goes from min(T) [0 0 0 0 0 0 0] -0.309629 to max(T) [0 0 0 0 0 0 0] 0.927999

ExecutionTime = 122.7 s  ClockTime = 1653 s

Time = 5.3
Courant Number mean: 1.85662 max: 3.63601
DILUPBiCG:  Solving for T, Initial residual = 0.0492315, Final residual = 1.64137e-09, No Iterations 8
DILUPBiCG:  Solving for T, Initial residual = 0.0037881, Final residual = 9.10589e-09, No Iterations 6
DILUPBiCG:  Solving for T, Initial residual = 0.00056359, Final residual = 7.97828e-09, No Iterations 5
DILUPBiCG:  Solving for T, Initial residual = 0.000117944, Final residual = 6.69844e-09, No Iterations 4
 T goes from min(T) [0 0 0 0 0 0 0] -0.309757 to max(T) [0 0 0 0 0 0 0] 0.928548

ExecutionTime = 123.31 s  ClockTime = 1659 s

Time = 5.325
Courant Number mean: 1.85389 max: 3.62841
DILUPBiCG:  Solving for T, Initial residual = 0.0497131, Final residual = 8.61268e-09, No Iterations 7
DILUPBiCG:  Solving for T, Initial residual = 0.00390867, Final residual = 8.68862e-10, No Iterations 7
DILUPBiCG:  Solving for T, Initial residual = 0.000592298, Final residual = 6.82265e-09, No Iterations 5
DILUPBiCG:  Solving for T, Initial residual = 0.000124926, Final residual = 6.36755e-09, No Iterations 4
 T goes from min(T) [0 0 0 0 0 0 0] -0.308801 to max(T) [0 0 0 0 0 0 0] 0.927965

ExecutionTime = 123.93 s  ClockTime = 1666 s

Time = 5.35
Courant Number mean: 1.85103 max: 3.62026
DILUPBiCG:  Solving for T, Initial residual = 0.0502492, Final residual = 6.77901e-09, No Iterations 7
DILUPBiCG:  Solving for T, Initial residual = 0.00404138, Final residual = 8.58677e-09, No Iterations 6
DILUPBiCG:  Solving for T, Initial residual = 0.000622844, Final residual = 3.80766e-09, No Iterations 5
DILUPBiCG:  Solving for T, Initial residual = 0.000132385, Final residual = 6.13027e-09, No Iterations 4
 T goes from min(T) [0 0 0 0 0 0 0] -0.307789 to max(T) [0 0 0 0 0 0 0] 0.924218

ExecutionTime = 124.52 s  ClockTime = 1672 s

Time = 5.375
Courant Number mean: 1.84791 max: 3.61133
DILUPBiCG:  Solving for T, Initial residual = 0.050867, Final residual = 8.6059e-09, No Iterations 7
DILUPBiCG:  Solving for T, Initial residual = 0.00418527, Final residual = 4.68235e-09, No Iterations 6
DILUPBiCG:  Solving for T, Initial residual = 0.000652563, Final residual = 3.59436e-09, No Iterations 5
DILUPBiCG:  Solving for T, Initial residual = 0.000139942, Final residual = 6.24927e-09, No Iterations 4
 T goes from min(T) [0 0 0 0 0 0 0] -0.308981 to max(T) [0 0 0 0 0 0 0] 0.926429

ExecutionTime = 125.05 s  ClockTime = 1677 s

Time = 5.4
Courant Number mean: 1.84451 max: 3.60207
DILUPBiCG:  Solving for T, Initial residual = 0.0515166, Final residual = 8.48695e-10, No Iterations 8
DILUPBiCG:  Solving for T, Initial residual = 0.00433012, Final residual = 5.57287e-09, No Iterations 6
DILUPBiCG:  Solving for T, Initial residual = 0.000685256, Final residual = 3.63703e-09, No Iterations 5
DILUPBiCG:  Solving for T, Initial residual = 0.000148059, Final residual = 6.36696e-09, No Iterations 4
 T goes from min(T) [0 0 0 0 0 0 0] -0.308282 to max(T) [0 0 0 0 0 0 0] 0.921185

ExecutionTime = 125.64 s  ClockTime = 1683 s

Time = 5.425
Courant Number mean: 1.84085 max: 3.59204
DILUPBiCG:  Solving for T, Initial residual = 0.0522092, Final residual = 7.76645e-10, No Iterations 8
DILUPBiCG:  Solving for T, Initial residual = 0.00447481, Final residual = 6.15432e-09, No Iterations 6
DILUPBiCG:  Solving for T, Initial residual = 0.000718815, Final residual = 4.24795e-09, No Iterations 5
DILUPBiCG:  Solving for T, Initial residual = 0.000156562, Final residual = 6.1832e-09, No Iterations 4
 T goes from min(T) [0 0 0 0 0 0 0] -0.308253 to max(T) [0 0 0 0 0 0 0] 0.924496

ExecutionTime = 126.19 s  ClockTime = 1688 s

Time = 5.45
Courant Number mean: 1.83708 max: 3.58147
DILUPBiCG:  Solving for T, Initial residual = 0.0529615, Final residual = 7.27859e-10, No Iterations 8
DILUPBiCG:  Solving for T, Initial residual = 0.00462637, Final residual = 5.63634e-09, No Iterations 6
DILUPBiCG:  Solving for T, Initial residual = 0.000752614, Final residual = 5.98727e-09, No Iterations 5
DILUPBiCG:  Solving for T, Initial residual = 0.000165403, Final residual = 6.0434e-09, No Iterations 4
 T goes from min(T) [0 0 0 0 0 0 0] -0.308329 to max(T) [0 0 0 0 0 0 0] 0.922313

ExecutionTime = 126.74 s  ClockTime = 1693 s

Time = 5.475
Courant Number mean: 1.83321 max: 3.57035
DILUPBiCG:  Solving for T, Initial residual = 0.0537592, Final residual = 6.92809e-10, No Iterations 8
DILUPBiCG:  Solving for T, Initial residual = 0.00478404, Final residual = 4.95993e-09, No Iterations 6
DILUPBiCG:  Solving for T, Initial residual = 0.000788912, Final residual = 6.74373e-10, No Iterations 6
DILUPBiCG:  Solving for T, Initial residual = 0.000175194, Final residual = 6.12889e-09, No Iterations 4
 T goes from min(T) [0 0 0 0 0 0 0] -0.307526 to max(T) [0 0 0 0 0 0 0] 0.920284

ExecutionTime = 127.28 s  ClockTime = 1697 s

Time = 5.5
Courant Number mean: 1.82907 max: 3.55847
DILUPBiCG:  Solving for T, Initial residual = 0.0546098, Final residual = 8.90342e-09, No Iterations 7
DILUPBiCG:  Solving for T, Initial residual = 0.00493195, Final residual = 4.76412e-09, No Iterations 6
DILUPBiCG:  Solving for T, Initial residual = 0.000823001, Final residual = 6.97486e-10, No Iterations 6
DILUPBiCG:  Solving for T, Initial residual = 0.000185227, Final residual = 6.91736e-09, No Iterations 4
 T goes from min(T) [0 0 0 0 0 0 0] -0.307764 to max(T) [0 0 0 0 0 0 0] 0.921115

ExecutionTime = 127.81 s  ClockTime = 1702 s

Time = 5.525
Courant Number mean: 1.82468 max: 3.54628
DILUPBiCG:  Solving for T, Initial residual = 0.0554049, Final residual = 7.62524e-09, No Iterations 7
DILUPBiCG:  Solving for T, Initial residual = 0.00508194, Final residual = 5.01039e-09, No Iterations 6
DILUPBiCG:  Solving for T, Initial residual = 0.000861578, Final residual = 4.88319e-09, No Iterations 5
DILUPBiCG:  Solving for T, Initial residual = 0.000195348, Final residual = 8.81232e-09, No Iterations 4
 T goes from min(T) [0 0 0 0 0 0 0] -0.307163 to max(T) [0 0 0 0 0 0 0] 0.919625

ExecutionTime = 128.36 s  ClockTime = 1707 s

Time = 5.55
Courant Number mean: 1.82003 max: 3.53333
DILUPBiCG:  Solving for T, Initial residual = 0.0562179, Final residual = 6.37627e-09, No Iterations 7
DILUPBiCG:  Solving for T, Initial residual = 0.00522738, Final residual = 5.59306e-09, No Iterations 6
DILUPBiCG:  Solving for T, Initial residual = 0.000897927, Final residual = 3.83042e-09, No Iterations 5
DILUPBiCG:  Solving for T, Initial residual = 0.000206006, Final residual = 8.5988e-09, No Iterations 4
 T goes from min(T) [0 0 0 0 0 0 0] -0.307798 to max(T) [0 0 0 0 0 0 0] 0.91813

ExecutionTime = 128.9 s  ClockTime = 1712 s

Time = 5.575
Courant Number mean: 1.81528 max: 3.51985
DILUPBiCG:  Solving for T, Initial residual = 0.0570919, Final residual = 5.44537e-09, No Iterations 7
DILUPBiCG:  Solving for T, Initial residual = 0.00537228, Final residual = 6.15862e-09, No Iterations 6
DILUPBiCG:  Solving for T, Initial residual = 0.000936754, Final residual = 3.70705e-09, No Iterations 5
DILUPBiCG:  Solving for T, Initial residual = 0.00021668, Final residual = 6.50022e-09, No Iterations 4
 T goes from min(T) [0 0 0 0 0 0 0] -0.30811 to max(T) [0 0 0 0 0 0 0] 0.916015

ExecutionTime = 129.43 s  ClockTime = 1717 s

Time = 5.6
Courant Number mean: 1.81045 max: 3.50583
DILUPBiCG:  Solving for T, Initial residual = 0.0579085, Final residual = 4.83157e-09, No Iterations 7
DILUPBiCG:  Solving for T, Initial residual = 0.00552664, Final residual = 5.98987e-09, No Iterations 6
DILUPBiCG:  Solving for T, Initial residual = 0.000975765, Final residual = 3.81512e-09, No Iterations 5
DILUPBiCG:  Solving for T, Initial residual = 0.000227715, Final residual = 4.68975e-09, No Iterations 4
 T goes from min(T) [0 0 0 0 0 0 0] -0.307521 to max(T) [0 0 0 0 0 0 0] 0.914759

ExecutionTime = 130.02 s  ClockTime = 1722 s

Time = 5.625
Courant Number mean: 1.80537 max: 3.49108
DILUPBiCG:  Solving for T, Initial residual = 0.0587562, Final residual = 4.22164e-09, No Iterations 7
DILUPBiCG:  Solving for T, Initial residual = 0.00567271, Final residual = 5.2878e-09, No Iterations 6
DILUPBiCG:  Solving for T, Initial residual = 0.00101371, Final residual = 3.81188e-09, No Iterations 5
DILUPBiCG:  Solving for T, Initial residual = 0.000238883, Final residual = 3.73755e-09, No Iterations 4
 T goes from min(T) [0 0 0 0 0 0 0] -0.307797 to max(T) [0 0 0 0 0 0 0] 0.914351

ExecutionTime = 130.63 s  ClockTime = 1728 s

Time = 5.65
Courant Number mean: 1.80005 max: 3.47602
DILUPBiCG:  Solving for T, Initial residual = 0.0595702, Final residual = 3.84936e-09, No Iterations 7
DILUPBiCG:  Solving for T, Initial residual = 0.00581563, Final residual = 5.47878e-09, No Iterations 6
DILUPBiCG:  Solving for T, Initial residual = 0.00105139, Final residual = 3.81858e-09, No Iterations 5
DILUPBiCG:  Solving for T, Initial residual = 0.000249869, Final residual = 3.57179e-09, No Iterations 4
 T goes from min(T) [0 0 0 0 0 0 0] -0.307718 to max(T) [0 0 0 0 0 0 0] 0.91233

ExecutionTime = 131.16 s  ClockTime = 1732 s

Time = 5.675
Courant Number mean: 1.7945 max: 3.46023
DILUPBiCG:  Solving for T, Initial residual = 0.0603914, Final residual = 3.76108e-09, No Iterations 7
DILUPBiCG:  Solving for T, Initial residual = 0.00596979, Final residual = 6.05547e-09, No Iterations 6
DILUPBiCG:  Solving for T, Initial residual = 0.00108789, Final residual = 4.0907e-09, No Iterations 5
DILUPBiCG:  Solving for T, Initial residual = 0.000260482, Final residual = 3.7279e-09, No Iterations 4
 T goes from min(T) [0 0 0 0 0 0 0] -0.307924 to max(T) [0 0 0 0 0 0 0] 0.91038

ExecutionTime = 131.69 s  ClockTime = 1737 s

Time = 5.7
Courant Number mean: 1.78888 max: 3.44392
DILUPBiCG:  Solving for T, Initial residual = 0.0612049, Final residual = 4.27685e-09, No Iterations 7
DILUPBiCG:  Solving for T, Initial residual = 0.00612379, Final residual = 4.85477e-09, No Iterations 6
DILUPBiCG:  Solving for T, Initial residual = 0.00112398, Final residual = 4.68798e-09, No Iterations 5
DILUPBiCG:  Solving for T, Initial residual = 0.000270998, Final residual = 3.88519e-09, No Iterations 4
 T goes from min(T) [0 0 0 0 0 0 0] -0.306004 to max(T) [0 0 0 0 0 0 0] 0.910053

ExecutionTime = 132.21 s  ClockTime = 1742 s

Time = 5.725
Courant Number mean: 1.78318 max: 3.42709
DILUPBiCG:  Solving for T, Initial residual = 0.0619418, Final residual = 3.99654e-09, No Iterations 7
DILUPBiCG:  Solving for T, Initial residual = 0.00626208, Final residual = 4.76614e-09, No Iterations 6
DILUPBiCG:  Solving for T, Initial residual = 0.00116062, Final residual = 2.13675e-09, No Iterations 5
DILUPBiCG:  Solving for T, Initial residual = 0.000282342, Final residual = 3.62902e-09, No Iterations 4
 T goes from min(T) [0 0 0 0 0 0 0] -0.307924 to max(T) [0 0 0 0 0 0 0] 0.906941

ExecutionTime = 132.75 s  ClockTime = 1747 s

Time = 5.75
Courant Number mean: 1.77725 max: 3.40956
DILUPBiCG:  Solving for T, Initial residual = 0.0627776, Final residual = 3.51031e-09, No Iterations 7
DILUPBiCG:  Solving for T, Initial residual = 0.00641046, Final residual = 3.52624e-09, No Iterations 6
DILUPBiCG:  Solving for T, Initial residual = 0.00119497, Final residual = 1.98792e-09, No Iterations 5
DILUPBiCG:  Solving for T, Initial residual = 0.000292805, Final residual = 3.64726e-09, No Iterations 4
 T goes from min(T) [0 0 0 0 0 0 0] -0.306649 to max(T) [0 0 0 0 0 0 0] 0.906675

ExecutionTime = 133.31 s  ClockTime = 1752 s

Time = 5.775
Courant Number mean: 1.77111 max: 3.39172
DILUPBiCG:  Solving for T, Initial residual = 0.0635975, Final residual = 4.83622e-09, No Iterations 7
DILUPBiCG:  Solving for T, Initial residual = 0.00656253, Final residual = 2.56444e-09, No Iterations 6
DILUPBiCG:  Solving for T, Initial residual = 0.00123001, Final residual = 1.97279e-09, No Iterations 5
DILUPBiCG:  Solving for T, Initial residual = 0.000302124, Final residual = 4.98769e-09, No Iterations 4
 T goes from min(T) [0 0 0 0 0 0 0] -0.303848 to max(T) [0 0 0 0 0 0 0] 0.904284

ExecutionTime = 133.84 s  ClockTime = 1756 s

Time = 5.8
Courant Number mean: 1.76476 max: 3.37319
DILUPBiCG:  Solving for T, Initial residual = 0.0644302, Final residual = 4.54585e-09, No Iterations 7
DILUPBiCG:  Solving for T, Initial residual = 0.00670158, Final residual = 1.64135e-09, No Iterations 6
DILUPBiCG:  Solving for T, Initial residual = 0.00126118, Final residual = 2.42069e-09, No Iterations 5
DILUPBiCG:  Solving for T, Initial residual = 0.000310628, Final residual = 3.93421e-09, No Iterations 4
 T goes from min(T) [0 0 0 0 0 0 0] -0.305289 to max(T) [0 0 0 0 0 0 0] 0.901573

ExecutionTime = 134.39 s  ClockTime = 1761 s

Time = 5.825
Courant Number mean: 1.75835 max: 3.35415
DILUPBiCG:  Solving for T, Initial residual = 0.0652494, Final residual = 3.60832e-09, No Iterations 7
DILUPBiCG:  Solving for T, Initial residual = 0.00683027, Final residual = 3.04066e-09, No Iterations 6
DILUPBiCG:  Solving for T, Initial residual = 0.00129213, Final residual = 2.13745e-09, No Iterations 5
DILUPBiCG:  Solving for T, Initial residual = 0.000321066, Final residual = 4.11214e-09, No Iterations 4
 T goes from min(T) [0 0 0 0 0 0 0] -0.304934 to max(T) [0 0 0 0 0 0 0] 0.900661

ExecutionTime = 134.94 s  ClockTime = 1766 s

Time = 5.85
Courant Number mean: 1.75189 max: 3.33463
DILUPBiCG:  Solving for T, Initial residual = 0.0660079, Final residual = 4.17894e-09, No Iterations 7
DILUPBiCG:  Solving for T, Initial residual = 0.00696149, Final residual = 1.80217e-09, No Iterations 6
DILUPBiCG:  Solving for T, Initial residual = 0.001323, Final residual = 1.84474e-09, No Iterations 5
DILUPBiCG:  Solving for T, Initial residual = 0.000330063, Final residual = 4.25693e-09, No Iterations 4
 T goes from min(T) [0 0 0 0 0 0 0] -0.3035 to max(T) [0 0 0 0 0 0 0] 0.89967

ExecutionTime = 135.49 s  ClockTime = 1771 s

Time = 5.875
Courant Number mean: 1.74525 max: 3.31442
DILUPBiCG:  Solving for T, Initial residual = 0.0668809, Final residual = 3.09617e-10, No Iterations 8
DILUPBiCG:  Solving for T, Initial residual = 0.00708384, Final residual = 1.79035e-09, No Iterations 6
DILUPBiCG:  Solving for T, Initial residual = 0.00134974, Final residual = 1.78804e-09, No Iterations 5
DILUPBiCG:  Solving for T, Initial residual = 0.000336207, Final residual = 4.53823e-09, No Iterations 4
 T goes from min(T) [0 0 0 0 0 0 0] -0.301481 to max(T) [0 0 0 0 0 0 0] 0.89586

ExecutionTime = 136.08 s  ClockTime = 1777 s

Time = 5.9
Courant Number mean: 1.73841 max: 3.29392
DILUPBiCG:  Solving for T, Initial residual = 0.0676504, Final residual = 7.47448e-09, No Iterations 7
DILUPBiCG:  Solving for T, Initial residual = 0.00719224, Final residual = 2.34911e-09, No Iterations 6
DILUPBiCG:  Solving for T, Initial residual = 0.00137591, Final residual = 1.77448e-09, No Iterations 5
DILUPBiCG:  Solving for T, Initial residual = 0.000344326, Final residual = 4.96047e-09, No Iterations 4
 T goes from min(T) [0 0 0 0 0 0 0] -0.298557 to max(T) [0 0 0 0 0 0 0] 0.895641

ExecutionTime = 136.61 s  ClockTime = 1781 s

Time = 5.925
Courant Number mean: 1.73139 max: 3.27275
DILUPBiCG:  Solving for T, Initial residual = 0.0683955, Final residual = 3.4366e-09, No Iterations 7
DILUPBiCG:  Solving for T, Initial residual = 0.00729516, Final residual = 1.45975e-09, No Iterations 6
DILUPBiCG:  Solving for T, Initial residual = 0.00139795, Final residual = 1.89482e-09, No Iterations 5
DILUPBiCG:  Solving for T, Initial residual = 0.000351731, Final residual = 5.54599e-09, No Iterations 4
 T goes from min(T) [0 0 0 0 0 0 0] -0.297127 to max(T) [0 0 0 0 0 0 0] 0.892831

ExecutionTime = 137.21 s  ClockTime = 1787 s

Time = 5.95
Courant Number mean: 1.72434 max: 3.25111
DILUPBiCG:  Solving for T, Initial residual = 0.0692649, Final residual = 2.45102e-09, No Iterations 7
DILUPBiCG:  Solving for T, Initial residual = 0.00740546, Final residual = 1.56812e-09, No Iterations 6
DILUPBiCG:  Solving for T, Initial residual = 0.00141711, Final residual = 1.78092e-09, No Iterations 5
DILUPBiCG:  Solving for T, Initial residual = 0.000356519, Final residual = 6.34638e-09, No Iterations 4
 T goes from min(T) [0 0 0 0 0 0 0] -0.294646 to max(T) [0 0 0 0 0 0 0] 0.891541

ExecutionTime = 137.79 s  ClockTime = 1792 s

Time = 5.975
Courant Number mean: 1.71727 max: 3.229
DILUPBiCG:  Solving for T, Initial residual = 0.0699655, Final residual = 1.96946e-09, No Iterations 7
DILUPBiCG:  Solving for T, Initial residual = 0.00748271, Final residual = 2.99545e-09, No Iterations 6
DILUPBiCG:  Solving for T, Initial residual = 0.00143624, Final residual = 1.8581e-09, No Iterations 5
DILUPBiCG:  Solving for T, Initial residual = 0.000360891, Final residual = 8.06888e-09, No Iterations 4
 T goes from min(T) [0 0 0 0 0 0 0] -0.291446 to max(T) [0 0 0 0 0 0 0] 0.888726

ExecutionTime = 138.34 s  ClockTime = 1797 s

Time = 6
Courant Number mean: 1.71005 max: 3.20624
DILUPBiCG:  Solving for T, Initial residual = 0.0707667, Final residual = 1.82554e-09, No Iterations 7
DILUPBiCG:  Solving for T, Initial residual = 0.00757149, Final residual = 3.27262e-09, No Iterations 6
DILUPBiCG:  Solving for T, Initial residual = 0.00145575, Final residual = 2.16464e-09, No Iterations 5
DILUPBiCG:  Solving for T, Initial residual = 0.000366052, Final residual = 4.23896e-10, No Iterations 5
 T goes from min(T) [0 0 0 0 0 0 0] -0.289483 to max(T) [0 0 0 0 0 0 0] 0.887056

ExecutionTime = 138.87 s  ClockTime = 1802 s

End

