/*---------------------------------------------------------------------------*\
| =========                 |                                                 |
| \\      /  F ield         | OpenFOAM: The Open Source CFD Toolbox           |
|  \\    /   O peration     | Version:  dev                                   |
|   \\  /    A nd           | Web:      www.OpenFOAM.org                      |
|    \\/     M anipulation  |                                                 |
\*---------------------------------------------------------------------------*/
Build  : dev-90f39e0d894d
Exec   : scalarDeformationWithGhosts implicit -case nonOrthogW/120x60/c2_implicit
Date   : May 23 2017
Time   : 20:31:23
Host   : "sws02hw.private.rdg.ac.uk"
PID    : 22925
Case   : nonOrthogW/120x60/c2_implicit
nProcs : 1
sigFpe : Enabling floating point exception trapping (FOAM_SIGFPE).
fileModificationChecking : Monitoring run-time modified files using timeStampMaster (fileModificationSkew 10)
allowSystemOperations : Allowing user-supplied system call operations

// * * * * * * * * * * * * * * * * * * * * * * * * * * * * * * * * * * * * * //
Create time

Create mesh for time = 0

Reading field T

Reading fields phi (compulsory), U and Uf (optional)

Calculating owner stencils
Calculating neighbour stencils

Calculating scalar transport

Courant Number mean: 0.932102 max: 1.93156
Time = 0.02
Courant Number mean: 0.931879 max: 1.94235
DILUPBiCG:  Solving for T, Initial residual = 0.0267954, Final residual = 7.44535e-10, No Iterations 5
DILUPBiCG:  Solving for T, Initial residual = 0.000554482, Final residual = 4.7837e-10, No Iterations 4
DILUPBiCG:  Solving for T, Initial residual = 1.57522e-05, Final residual = 3.50365e-10, No Iterations 3
DILUPBiCG:  Solving for T, Initial residual = 1.08704e-06, Final residual = 3.37768e-09, No Iterations 2
 T goes from min(T) [0 0 0 0 0 0 0] -1.02717e-16 to max(T) [0 0 0 0 0 0 0] 0.951354

ExecutionTime = 2.19 s  ClockTime = 37 s

Time = 0.04
Courant Number mean: 0.931225 max: 1.9511
DILUPBiCG:  Solving for T, Initial residual = 0.0267924, Final residual = 7.5029e-10, No Iterations 5
DILUPBiCG:  Solving for T, Initial residual = 0.000557748, Final residual = 4.42765e-10, No Iterations 4
DILUPBiCG:  Solving for T, Initial residual = 1.60917e-05, Final residual = 3.19739e-10, No Iterations 3
DILUPBiCG:  Solving for T, Initial residual = 1.14855e-06, Final residual = 7.0845e-09, No Iterations 2
 T goes from min(T) [0 0 0 0 0 0 0] -6.26518e-14 to max(T) [0 0 0 0 0 0 0] 0.95241

ExecutionTime = 2.32 s  ClockTime = 40 s

Time = 0.06
Courant Number mean: 0.93013 max: 1.9607
DILUPBiCG:  Solving for T, Initial residual = 0.0268414, Final residual = 8.08729e-10, No Iterations 5
DILUPBiCG:  Solving for T, Initial residual = 0.000563178, Final residual = 4.27051e-10, No Iterations 4
DILUPBiCG:  Solving for T, Initial residual = 1.66928e-05, Final residual = 3.07948e-10, No Iterations 3
DILUPBiCG:  Solving for T, Initial residual = 1.26298e-06, Final residual = 4.06686e-11, No Iterations 3
 T goes from min(T) [0 0 0 0 0 0 0] -6.00592e-13 to max(T) [0 0 0 0 0 0 0] 0.95192

ExecutionTime = 2.47 s  ClockTime = 42 s

Time = 0.08
Courant Number mean: 0.928612 max: 1.97027
DILUPBiCG:  Solving for T, Initial residual = 0.0268958, Final residual = 9.58659e-10, No Iterations 5
DILUPBiCG:  Solving for T, Initial residual = 0.00057047, Final residual = 4.32554e-10, No Iterations 4
DILUPBiCG:  Solving for T, Initial residual = 1.75831e-05, Final residual = 3.11246e-10, No Iterations 3
DILUPBiCG:  Solving for T, Initial residual = 1.44051e-06, Final residual = 7.25475e-09, No Iterations 2
 T goes from min(T) [0 0 0 0 0 0 0] -1.84381e-12 to max(T) [0 0 0 0 0 0 0] 0.952668

ExecutionTime = 2.61 s  ClockTime = 45 s

Time = 0.1
Courant Number mean: 0.926646 max: 1.97975
DILUPBiCG:  Solving for T, Initial residual = 0.0269519, Final residual = 1.30834e-09, No Iterations 5
DILUPBiCG:  Solving for T, Initial residual = 0.000579875, Final residual = 4.5766e-10, No Iterations 4
DILUPBiCG:  Solving for T, Initial residual = 1.87868e-05, Final residual = 3.68899e-10, No Iterations 3
DILUPBiCG:  Solving for T, Initial residual = 1.66639e-06, Final residual = 4.82459e-09, No Iterations 2
 T goes from min(T) [0 0 0 0 0 0 0] -3.31838e-12 to max(T) [0 0 0 0 0 0 0] 0.953111

ExecutionTime = 2.74 s  ClockTime = 48 s

Time = 0.12
Courant Number mean: 0.924257 max: 1.98812
DILUPBiCG:  Solving for T, Initial residual = 0.0270204, Final residual = 2.75818e-09, No Iterations 5
DILUPBiCG:  Solving for T, Initial residual = 0.000591629, Final residual = 4.99661e-10, No Iterations 4
DILUPBiCG:  Solving for T, Initial residual = 2.02941e-05, Final residual = 4.52629e-10, No Iterations 3
DILUPBiCG:  Solving for T, Initial residual = 1.95518e-06, Final residual = 4.29937e-09, No Iterations 2
 T goes from min(T) [0 0 0 0 0 0 0] -5.02252e-12 to max(T) [0 0 0 0 0 0 0] 0.952245

ExecutionTime = 2.88 s  ClockTime = 50 s

Time = 0.14
Courant Number mean: 0.921427 max: 1.9953
DILUPBiCG:  Solving for T, Initial residual = 0.0270862, Final residual = 3.03674e-09, No Iterations 5
DILUPBiCG:  Solving for T, Initial residual = 0.000605619, Final residual = 5.98492e-10, No Iterations 4
DILUPBiCG:  Solving for T, Initial residual = 2.21756e-05, Final residual = 5.45117e-10, No Iterations 3
DILUPBiCG:  Solving for T, Initial residual = 2.31135e-06, Final residual = 4.21626e-09, No Iterations 2
 T goes from min(T) [0 0 0 0 0 0 0] -6.92886e-12 to max(T) [0 0 0 0 0 0 0] 0.954296

ExecutionTime = 3.02 s  ClockTime = 53 s

Time = 0.16
Courant Number mean: 0.918193 max: 2.00451
DILUPBiCG:  Solving for T, Initial residual = 0.0271609, Final residual = 7.65242e-11, No Iterations 6
DILUPBiCG:  Solving for T, Initial residual = 0.000622037, Final residual = 7.41746e-10, No Iterations 4
DILUPBiCG:  Solving for T, Initial residual = 2.42856e-05, Final residual = 6.42808e-10, No Iterations 3
DILUPBiCG:  Solving for T, Initial residual = 2.72311e-06, Final residual = 4.29902e-09, No Iterations 2
 T goes from min(T) [0 0 0 0 0 0 0] -8.5339e-12 to max(T) [0 0 0 0 0 0 0] 0.952045

ExecutionTime = 3.16 s  ClockTime = 56 s

Time = 0.18
Courant Number mean: 0.914642 max: 2.01159
DILUPBiCG:  Solving for T, Initial residual = 0.0272442, Final residual = 1.4057e-09, No Iterations 5
DILUPBiCG:  Solving for T, Initial residual = 0.000639009, Final residual = 9.69688e-10, No Iterations 4
DILUPBiCG:  Solving for T, Initial residual = 2.66118e-05, Final residual = 7.20128e-10, No Iterations 3
DILUPBiCG:  Solving for T, Initial residual = 3.19728e-06, Final residual = 4.42413e-09, No Iterations 2
 T goes from min(T) [0 0 0 0 0 0 0] -1.19105e-11 to max(T) [0 0 0 0 0 0 0] 0.954897

ExecutionTime = 3.3 s  ClockTime = 58 s

Time = 0.2
Courant Number mean: 0.910802 max: 2.01704
DILUPBiCG:  Solving for T, Initial residual = 0.0273238, Final residual = 7.35748e-10, No Iterations 5
DILUPBiCG:  Solving for T, Initial residual = 0.000658533, Final residual = 1.38678e-09, No Iterations 4
DILUPBiCG:  Solving for T, Initial residual = 2.92672e-05, Final residual = 7.79205e-10, No Iterations 3
DILUPBiCG:  Solving for T, Initial residual = 3.68647e-06, Final residual = 4.50823e-09, No Iterations 2
 T goes from min(T) [0 0 0 0 0 0 0] -1.33579e-11 to max(T) [0 0 0 0 0 0 0] 0.951549

ExecutionTime = 3.44 s  ClockTime = 61 s

Time = 0.22
Courant Number mean: 0.906687 max: 2.0249
DILUPBiCG:  Solving for T, Initial residual = 0.0273891, Final residual = 7.7518e-10, No Iterations 5
DILUPBiCG:  Solving for T, Initial residual = 0.000680408, Final residual = 2.31841e-09, No Iterations 4
DILUPBiCG:  Solving for T, Initial residual = 3.21517e-05, Final residual = 8.37799e-10, No Iterations 3
DILUPBiCG:  Solving for T, Initial residual = 4.20853e-06, Final residual = 4.45838e-09, No Iterations 2
 T goes from min(T) [0 0 0 0 0 0 0] -1.5584e-11 to max(T) [0 0 0 0 0 0 0] 0.953339

ExecutionTime = 3.58 s  ClockTime = 64 s

Time = 0.24
Courant Number mean: 0.902391 max: 2.03061
DILUPBiCG:  Solving for T, Initial residual = 0.0274649, Final residual = 1.1234e-09, No Iterations 5
DILUPBiCG:  Solving for T, Initial residual = 0.000702972, Final residual = 5.39766e-09, No Iterations 4
DILUPBiCG:  Solving for T, Initial residual = 3.51739e-05, Final residual = 9.27226e-10, No Iterations 3
DILUPBiCG:  Solving for T, Initial residual = 4.74428e-06, Final residual = 4.25158e-09, No Iterations 2
 T goes from min(T) [0 0 0 0 0 0 0] -1.74385e-11 to max(T) [0 0 0 0 0 0 0] 0.955041

ExecutionTime = 3.72 s  ClockTime = 66 s

Time = 0.26
Courant Number mean: 0.897828 max: 2.03637
DILUPBiCG:  Solving for T, Initial residual = 0.027551, Final residual = 9.97344e-09, No Iterations 5
DILUPBiCG:  Solving for T, Initial residual = 0.000728137, Final residual = 3.26647e-11, No Iterations 5
DILUPBiCG:  Solving for T, Initial residual = 3.82231e-05, Final residual = 1.09049e-09, No Iterations 3
DILUPBiCG:  Solving for T, Initial residual = 5.24808e-06, Final residual = 3.83338e-09, No Iterations 2
 T goes from min(T) [0 0 0 0 0 0 0] -1.91605e-11 to max(T) [0 0 0 0 0 0 0] 0.949971

ExecutionTime = 3.85 s  ClockTime = 69 s

Time = 0.28
Courant Number mean: 0.89312 max: 2.04094
DILUPBiCG:  Solving for T, Initial residual = 0.0276188, Final residual = 2.81269e-09, No Iterations 5
DILUPBiCG:  Solving for T, Initial residual = 0.000755683, Final residual = 3.75981e-11, No Iterations 5
DILUPBiCG:  Solving for T, Initial residual = 4.14596e-05, Final residual = 1.40636e-09, No Iterations 3
DILUPBiCG:  Solving for T, Initial residual = 5.74075e-06, Final residual = 3.24532e-09, No Iterations 2
 T goes from min(T) [0 0 0 0 0 0 0] -1.60682e-11 to max(T) [0 0 0 0 0 0 0] 0.953113

ExecutionTime = 3.99 s  ClockTime = 71 s

Time = 0.3
Courant Number mean: 0.888151 max: 2.04621
DILUPBiCG:  Solving for T, Initial residual = 0.0277169, Final residual = 3.95112e-09, No Iterations 5
DILUPBiCG:  Solving for T, Initial residual = 0.000780812, Final residual = 4.90366e-09, No Iterations 4
DILUPBiCG:  Solving for T, Initial residual = 4.45148e-05, Final residual = 2.21417e-09, No Iterations 3
DILUPBiCG:  Solving for T, Initial residual = 6.13947e-06, Final residual = 5.1837e-10, No Iterations 3
 T goes from min(T) [0 0 0 0 0 0 0] -1.94729e-11 to max(T) [0 0 0 0 0 0 0] 0.955208

ExecutionTime = 4.12 s  ClockTime = 74 s

Time = 0.32
Courant Number mean: 0.883109 max: 2.05155
DILUPBiCG:  Solving for T, Initial residual = 0.027799, Final residual = 2.17601e-09, No Iterations 5
DILUPBiCG:  Solving for T, Initial residual = 0.000810495, Final residual = 2.43612e-09, No Iterations 4
DILUPBiCG:  Solving for T, Initial residual = 4.76915e-05, Final residual = 5.07551e-09, No Iterations 3
DILUPBiCG:  Solving for T, Initial residual = 6.54118e-06, Final residual = 8.8337e-09, No Iterations 2
 T goes from min(T) [0 0 0 0 0 0 0] -2.30034e-10 to max(T) [0 0 0 0 0 0 0] 0.953564

ExecutionTime = 4.26 s  ClockTime = 77 s

Time = 0.34
Courant Number mean: 0.87783 max: 2.05472
DILUPBiCG:  Solving for T, Initial residual = 0.027877, Final residual = 2.50445e-09, No Iterations 5
DILUPBiCG:  Solving for T, Initial residual = 0.000839079, Final residual = 1.23695e-09, No Iterations 4
DILUPBiCG:  Solving for T, Initial residual = 5.08558e-05, Final residual = 9.65949e-11, No Iterations 4
DILUPBiCG:  Solving for T, Initial residual = 6.91004e-06, Final residual = 6.86533e-09, No Iterations 2
 T goes from min(T) [0 0 0 0 0 0 0] -1.49263e-09 to max(T) [0 0 0 0 0 0 0] 0.95055

ExecutionTime = 4.39 s  ClockTime = 79 s

Time = 0.36
Courant Number mean: 0.872482 max: 2.05805
DILUPBiCG:  Solving for T, Initial residual = 0.0279935, Final residual = 2.47602e-09, No Iterations 5
DILUPBiCG:  Solving for T, Initial residual = 0.000869224, Final residual = 1.13422e-09, No Iterations 4
DILUPBiCG:  Solving for T, Initial residual = 5.35972e-05, Final residual = 6.38673e-09, No Iterations 3
DILUPBiCG:  Solving for T, Initial residual = 7.21809e-06, Final residual = 6.48092e-09, No Iterations 2
 T goes from min(T) [0 0 0 0 0 0 0] -6.46039e-09 to max(T) [0 0 0 0 0 0 0] 0.94896

ExecutionTime = 4.52 s  ClockTime = 82 s

Time = 0.38
Courant Number mean: 0.866929 max: 2.06193
DILUPBiCG:  Solving for T, Initial residual = 0.0280699, Final residual = 2.7041e-09, No Iterations 5
DILUPBiCG:  Solving for T, Initial residual = 0.000900634, Final residual = 1.32581e-09, No Iterations 4
DILUPBiCG:  Solving for T, Initial residual = 5.68405e-05, Final residual = 3.57372e-09, No Iterations 3
DILUPBiCG:  Solving for T, Initial residual = 7.52872e-06, Final residual = 6.5473e-09, No Iterations 2
 T goes from min(T) [0 0 0 0 0 0 0] -1.04216e-08 to max(T) [0 0 0 0 0 0 0] 0.945335

ExecutionTime = 4.66 s  ClockTime = 84 s

Time = 0.4
Courant Number mean: 0.861297 max: 2.06363
DILUPBiCG:  Solving for T, Initial residual = 0.0281964, Final residual = 2.87424e-09, No Iterations 5
DILUPBiCG:  Solving for T, Initial residual = 0.000931722, Final residual = 1.62802e-09, No Iterations 4
DILUPBiCG:  Solving for T, Initial residual = 6.014e-05, Final residual = 3.09286e-09, No Iterations 3
DILUPBiCG:  Solving for T, Initial residual = 7.89267e-06, Final residual = 6.9763e-09, No Iterations 2
 T goes from min(T) [0 0 0 0 0 0 0] -1.36531e-08 to max(T) [0 0 0 0 0 0 0] 0.94635

ExecutionTime = 4.79 s  ClockTime = 87 s

Time = 0.42
Courant Number mean: 0.855496 max: 2.06498
DILUPBiCG:  Solving for T, Initial residual = 0.0282941, Final residual = 3.30788e-09, No Iterations 5
DILUPBiCG:  Solving for T, Initial residual = 0.000963854, Final residual = 2.17501e-09, No Iterations 4
DILUPBiCG:  Solving for T, Initial residual = 6.3147e-05, Final residual = 3.22922e-09, No Iterations 3
DILUPBiCG:  Solving for T, Initial residual = 8.2347e-06, Final residual = 7.95718e-09, No Iterations 2
 T goes from min(T) [0 0 0 0 0 0 0] -7.15402e-08 to max(T) [0 0 0 0 0 0 0] 0.945435

ExecutionTime = 4.94 s  ClockTime = 89 s

Time = 0.44
Courant Number mean: 0.849603 max: 2.06734
DILUPBiCG:  Solving for T, Initial residual = 0.0284516, Final residual = 4.26448e-09, No Iterations 5
DILUPBiCG:  Solving for T, Initial residual = 0.000998332, Final residual = 7.55339e-09, No Iterations 4
DILUPBiCG:  Solving for T, Initial residual = 6.60261e-05, Final residual = 3.5862e-09, No Iterations 3
DILUPBiCG:  Solving for T, Initial residual = 8.61571e-06, Final residual = 9.23868e-09, No Iterations 2
 T goes from min(T) [0 0 0 0 0 0 0] -1.43671e-07 to max(T) [0 0 0 0 0 0 0] 0.945427

ExecutionTime = 5.06 s  ClockTime = 92 s

Time = 0.46
Courant Number mean: 0.843622 max: 2.06823
DILUPBiCG:  Solving for T, Initial residual = 0.0286157, Final residual = 4.30516e-09, No Iterations 5
DILUPBiCG:  Solving for T, Initial residual = 0.00102885, Final residual = 2.62185e-09, No Iterations 4
DILUPBiCG:  Solving for T, Initial residual = 6.99642e-05, Final residual = 4.06876e-09, No Iterations 3
DILUPBiCG:  Solving for T, Initial residual = 9.0052e-06, Final residual = 5.55505e-10, No Iterations 3
 T goes from min(T) [0 0 0 0 0 0 0] -2.05236e-07 to max(T) [0 0 0 0 0 0 0] 0.946474

ExecutionTime = 5.19 s  ClockTime = 94 s

Time = 0.48
Courant Number mean: 0.837509 max: 2.06961
DILUPBiCG:  Solving for T, Initial residual = 0.0287628, Final residual = 4.23882e-09, No Iterations 5
DILUPBiCG:  Solving for T, Initial residual = 0.00106281, Final residual = 3.74542e-09, No Iterations 4
DILUPBiCG:  Solving for T, Initial residual = 7.35768e-05, Final residual = 4.58685e-09, No Iterations 3
DILUPBiCG:  Solving for T, Initial residual = 9.47843e-06, Final residual = 6.6248e-10, No Iterations 3
 T goes from min(T) [0 0 0 0 0 0 0] -2.57937e-07 to max(T) [0 0 0 0 0 0 0] 0.945184

ExecutionTime = 5.31 s  ClockTime = 97 s

Time = 0.5
Courant Number mean: 0.831332 max: 2.06881
DILUPBiCG:  Solving for T, Initial residual = 0.0289708, Final residual = 5.01666e-09, No Iterations 5
DILUPBiCG:  Solving for T, Initial residual = 0.00109698, Final residual = 5.00229e-09, No Iterations 4
DILUPBiCG:  Solving for T, Initial residual = 7.73404e-05, Final residual = 5.13691e-09, No Iterations 3
DILUPBiCG:  Solving for T, Initial residual = 1.00311e-05, Final residual = 7.86075e-10, No Iterations 3
 T goes from min(T) [0 0 0 0 0 0 0] -3.03605e-07 to max(T) [0 0 0 0 0 0 0] 0.945485

ExecutionTime = 5.44 s  ClockTime = 99 s

Time = 0.52
Courant Number mean: 0.825023 max: 2.06934
DILUPBiCG:  Solving for T, Initial residual = 0.0291305, Final residual = 7.3351e-09, No Iterations 5
DILUPBiCG:  Solving for T, Initial residual = 0.00113113, Final residual = 6.56089e-09, No Iterations 4
DILUPBiCG:  Solving for T, Initial residual = 8.20326e-05, Final residual = 5.88166e-09, No Iterations 3
DILUPBiCG:  Solving for T, Initial residual = 1.06556e-05, Final residual = 9.12408e-10, No Iterations 3
 T goes from min(T) [0 0 0 0 0 0 0] -7.48204e-07 to max(T) [0 0 0 0 0 0 0] 0.940277

ExecutionTime = 5.58 s  ClockTime = 102 s

Time = 0.54
Courant Number mean: 0.818707 max: 2.06921
DILUPBiCG:  Solving for T, Initial residual = 0.0293286, Final residual = 1.31525e-09, No Iterations 6
DILUPBiCG:  Solving for T, Initial residual = 0.00117131, Final residual = 9.08138e-09, No Iterations 4
DILUPBiCG:  Solving for T, Initial residual = 8.69811e-05, Final residual = 6.75075e-09, No Iterations 3
DILUPBiCG:  Solving for T, Initial residual = 1.14193e-05, Final residual = 1.04356e-09, No Iterations 3
 T goes from min(T) [0 0 0 0 0 0 0] -3.72395e-06 to max(T) [0 0 0 0 0 0 0] 0.935462

ExecutionTime = 5.71 s  ClockTime = 104 s

Time = 0.56
Courant Number mean: 0.812238 max: 2.06694
DILUPBiCG:  Solving for T, Initial residual = 0.0295251, Final residual = 5.55951e-09, No Iterations 5
DILUPBiCG:  Solving for T, Initial residual = 0.00121003, Final residual = 3.44442e-10, No Iterations 5
DILUPBiCG:  Solving for T, Initial residual = 9.21459e-05, Final residual = 7.67003e-09, No Iterations 3
DILUPBiCG:  Solving for T, Initial residual = 1.22541e-05, Final residual = 1.18916e-09, No Iterations 3
 T goes from min(T) [0 0 0 0 0 0 0] -6.30394e-06 to max(T) [0 0 0 0 0 0 0] 0.932682

ExecutionTime = 5.85 s  ClockTime = 107 s

Time = 0.58
Courant Number mean: 0.805799 max: 2.06536
DILUPBiCG:  Solving for T, Initial residual = 0.0297536, Final residual = 5.18343e-09, No Iterations 5
DILUPBiCG:  Solving for T, Initial residual = 0.00125248, Final residual = 3.84088e-10, No Iterations 5
DILUPBiCG:  Solving for T, Initial residual = 9.8103e-05, Final residual = 8.53969e-09, No Iterations 3
DILUPBiCG:  Solving for T, Initial residual = 1.30987e-05, Final residual = 1.33579e-09, No Iterations 3
 T goes from min(T) [0 0 0 0 0 0 0] -1.00223e-05 to max(T) [0 0 0 0 0 0 0] 0.93339

ExecutionTime = 6.02 s  ClockTime = 111 s

Time = 0.6
Courant Number mean: 0.79921 max: 2.06372
DILUPBiCG:  Solving for T, Initial residual = 0.0299125, Final residual = 5.54898e-09, No Iterations 5
DILUPBiCG:  Solving for T, Initial residual = 0.00129816, Final residual = 8.12822e-09, No Iterations 4
DILUPBiCG:  Solving for T, Initial residual = 0.00010423, Final residual = 9.47409e-09, No Iterations 3
DILUPBiCG:  Solving for T, Initial residual = 1.42527e-05, Final residual = 1.49003e-09, No Iterations 3
 T goes from min(T) [0 0 0 0 0 0 0] -1.37419e-05 to max(T) [0 0 0 0 0 0 0] 0.928027

ExecutionTime = 6.16 s  ClockTime = 114 s

Time = 0.62
Courant Number mean: 0.792625 max: 2.05996
DILUPBiCG:  Solving for T, Initial residual = 0.0301778, Final residual = 6.06429e-09, No Iterations 5
DILUPBiCG:  Solving for T, Initial residual = 0.00134617, Final residual = 6.76042e-09, No Iterations 4
DILUPBiCG:  Solving for T, Initial residual = 0.000111371, Final residual = 5.64595e-10, No Iterations 4
DILUPBiCG:  Solving for T, Initial residual = 1.53134e-05, Final residual = 1.65134e-09, No Iterations 3
 T goes from min(T) [0 0 0 0 0 0 0] -1.58844e-05 to max(T) [0 0 0 0 0 0 0] 0.919579

ExecutionTime = 6.32 s  ClockTime = 117 s

Time = 0.64
Courant Number mean: 0.785943 max: 2.05731
DILUPBiCG:  Solving for T, Initial residual = 0.0303828, Final residual = 6.16942e-09, No Iterations 5
DILUPBiCG:  Solving for T, Initial residual = 0.00140032, Final residual = 6.61953e-09, No Iterations 4
DILUPBiCG:  Solving for T, Initial residual = 0.000118595, Final residual = 6.29806e-10, No Iterations 4
DILUPBiCG:  Solving for T, Initial residual = 1.67216e-05, Final residual = 1.82252e-09, No Iterations 3
 T goes from min(T) [0 0 0 0 0 0 0] -1.96202e-05 to max(T) [0 0 0 0 0 0 0] 0.922443

ExecutionTime = 6.47 s  ClockTime = 120 s

Time = 0.66
Courant Number mean: 0.779254 max: 2.05314
DILUPBiCG:  Solving for T, Initial residual = 0.0306057, Final residual = 5.50311e-09, No Iterations 5
DILUPBiCG:  Solving for T, Initial residual = 0.00145371, Final residual = 6.6798e-09, No Iterations 4
DILUPBiCG:  Solving for T, Initial residual = 0.000126618, Final residual = 7.22131e-10, No Iterations 4
DILUPBiCG:  Solving for T, Initial residual = 1.80288e-05, Final residual = 2.04914e-09, No Iterations 3
 T goes from min(T) [0 0 0 0 0 0 0] -3.55686e-05 to max(T) [0 0 0 0 0 0 0] 0.922055

ExecutionTime = 6.61 s  ClockTime = 123 s

Time = 0.68
Courant Number mean: 0.772527 max: 2.04996
DILUPBiCG:  Solving for T, Initial residual = 0.0307753, Final residual = 4.59654e-09, No Iterations 5
DILUPBiCG:  Solving for T, Initial residual = 0.00151149, Final residual = 6.75776e-09, No Iterations 4
DILUPBiCG:  Solving for T, Initial residual = 0.000134498, Final residual = 8.06589e-10, No Iterations 4
DILUPBiCG:  Solving for T, Initial residual = 1.95197e-05, Final residual = 2.34873e-09, No Iterations 3
 T goes from min(T) [0 0 0 0 0 0 0] -5.69672e-05 to max(T) [0 0 0 0 0 0 0] 0.91816

ExecutionTime = 6.74 s  ClockTime = 125 s

Time = 0.7
Courant Number mean: 0.765763 max: 2.04598
DILUPBiCG:  Solving for T, Initial residual = 0.0310562, Final residual = 4.368e-09, No Iterations 5
DILUPBiCG:  Solving for T, Initial residual = 0.0015678, Final residual = 7.53883e-09, No Iterations 4
DILUPBiCG:  Solving for T, Initial residual = 0.000143107, Final residual = 9.07134e-10, No Iterations 4
DILUPBiCG:  Solving for T, Initial residual = 2.10118e-05, Final residual = 2.73753e-09, No Iterations 3
 T goes from min(T) [0 0 0 0 0 0 0] -8.21663e-05 to max(T) [0 0 0 0 0 0 0] 0.914605

ExecutionTime = 6.88 s  ClockTime = 128 s

Time = 0.72
Courant Number mean: 0.758975 max: 2.03993
DILUPBiCG:  Solving for T, Initial residual = 0.031282, Final residual = 5.42846e-09, No Iterations 5
DILUPBiCG:  Solving for T, Initial residual = 0.00163099, Final residual = 8.71868e-09, No Iterations 4
DILUPBiCG:  Solving for T, Initial residual = 0.000152114, Final residual = 1.14701e-09, No Iterations 4
DILUPBiCG:  Solving for T, Initial residual = 2.26111e-05, Final residual = 3.03265e-09, No Iterations 3
 T goes from min(T) [0 0 0 0 0 0 0] -0.000113601 to max(T) [0 0 0 0 0 0 0] 0.91708

ExecutionTime = 7.01 s  ClockTime = 130 s

Time = 0.74
Courant Number mean: 0.752152 max: 2.03506
DILUPBiCG:  Solving for T, Initial residual = 0.0315473, Final residual = 9.33186e-09, No Iterations 5
DILUPBiCG:  Solving for T, Initial residual = 0.00169512, Final residual = 7.71479e-09, No Iterations 4
DILUPBiCG:  Solving for T, Initial residual = 0.00016152, Final residual = 9.47226e-10, No Iterations 4
DILUPBiCG:  Solving for T, Initial residual = 2.4326e-05, Final residual = 3.91371e-09, No Iterations 3
 T goes from min(T) [0 0 0 0 0 0 0] -0.000150816 to max(T) [0 0 0 0 0 0 0] 0.918008

ExecutionTime = 7.14 s  ClockTime = 133 s

Time = 0.76
Courant Number mean: 0.745357 max: 2.02963
DILUPBiCG:  Solving for T, Initial residual = 0.0317858, Final residual = 3.38423e-10, No Iterations 6
DILUPBiCG:  Solving for T, Initial residual = 0.00175604, Final residual = 6.83924e-09, No Iterations 4
DILUPBiCG:  Solving for T, Initial residual = 0.00017139, Final residual = 1.07268e-09, No Iterations 4
DILUPBiCG:  Solving for T, Initial residual = 2.62125e-05, Final residual = 2.5015e-10, No Iterations 4
 T goes from min(T) [0 0 0 0 0 0 0] -0.000185034 to max(T) [0 0 0 0 0 0 0] 0.91765

ExecutionTime = 7.28 s  ClockTime = 135 s

Time = 0.78
Courant Number mean: 0.738518 max: 2.02219
DILUPBiCG:  Solving for T, Initial residual = 0.0320452, Final residual = 8.74179e-10, No Iterations 6
DILUPBiCG:  Solving for T, Initial residual = 0.0018099, Final residual = 7.26275e-09, No Iterations 4
DILUPBiCG:  Solving for T, Initial residual = 0.000180846, Final residual = 2.1621e-09, No Iterations 4
DILUPBiCG:  Solving for T, Initial residual = 2.80898e-05, Final residual = 9.70945e-09, No Iterations 3
 T goes from min(T) [0 0 0 0 0 0 0] -0.000233295 to max(T) [0 0 0 0 0 0 0] 0.919472

ExecutionTime = 7.44 s  ClockTime = 139 s

Time = 0.8
Courant Number mean: 0.73175 max: 2.01522
DILUPBiCG:  Solving for T, Initial residual = 0.0322868, Final residual = 7.69512e-09, No Iterations 5
DILUPBiCG:  Solving for T, Initial residual = 0.00186179, Final residual = 5.39937e-10, No Iterations 5
DILUPBiCG:  Solving for T, Initial residual = 0.000190439, Final residual = 8.2652e-11, No Iterations 5
DILUPBiCG:  Solving for T, Initial residual = 2.9993e-05, Final residual = 6.68704e-09, No Iterations 3
 T goes from min(T) [0 0 0 0 0 0 0] -0.000294773 to max(T) [0 0 0 0 0 0 0] 0.916534

ExecutionTime = 7.58 s  ClockTime = 143 s

Time = 0.82
Courant Number mean: 0.724919 max: 2.00838
DILUPBiCG:  Solving for T, Initial residual = 0.0326177, Final residual = 6.45024e-09, No Iterations 5
DILUPBiCG:  Solving for T, Initial residual = 0.00191392, Final residual = 6.56195e-10, No Iterations 5
DILUPBiCG:  Solving for T, Initial residual = 0.000198755, Final residual = 4.43666e-09, No Iterations 4
DILUPBiCG:  Solving for T, Initial residual = 3.16501e-05, Final residual = 5.63422e-09, No Iterations 3
 T goes from min(T) [0 0 0 0 0 0 0] -0.000616672 to max(T) [0 0 0 0 0 0 0] 0.918577

ExecutionTime = 7.73 s  ClockTime = 148 s

Time = 0.84
Courant Number mean: 0.718186 max: 2.00079
DILUPBiCG:  Solving for T, Initial residual = 0.0328985, Final residual = 2.5728e-11, No Iterations 7
DILUPBiCG:  Solving for T, Initial residual = 0.00195952, Final residual = 8.47039e-10, No Iterations 5
DILUPBiCG:  Solving for T, Initial residual = 0.000206327, Final residual = 6.86562e-09, No Iterations 4
DILUPBiCG:  Solving for T, Initial residual = 3.31593e-05, Final residual = 5.14072e-09, No Iterations 3
 T goes from min(T) [0 0 0 0 0 0 0] -0.00133093 to max(T) [0 0 0 0 0 0 0] 0.914355

ExecutionTime = 7.87 s  ClockTime = 151 s

Time = 0.86
Courant Number mean: 0.711444 max: 1.99328
DILUPBiCG:  Solving for T, Initial residual = 0.0332175, Final residual = 1.09648e-09, No Iterations 6
DILUPBiCG:  Solving for T, Initial residual = 0.00200448, Final residual = 6.63141e-10, No Iterations 5
DILUPBiCG:  Solving for T, Initial residual = 0.000211457, Final residual = 4.39856e-09, No Iterations 4
DILUPBiCG:  Solving for T, Initial residual = 3.43322e-05, Final residual = 4.84171e-09, No Iterations 3
 T goes from min(T) [0 0 0 0 0 0 0] -0.00200477 to max(T) [0 0 0 0 0 0 0] 0.915664

ExecutionTime = 8.01 s  ClockTime = 154 s

Time = 0.88
Courant Number mean: 0.704768 max: 1.98383
DILUPBiCG:  Solving for T, Initial residual = 0.0335072, Final residual = 4.9722e-10, No Iterations 6
DILUPBiCG:  Solving for T, Initial residual = 0.00203297, Final residual = 3.42106e-10, No Iterations 5
DILUPBiCG:  Solving for T, Initial residual = 0.000217082, Final residual = 3.33696e-09, No Iterations 4
DILUPBiCG:  Solving for T, Initial residual = 3.57129e-05, Final residual = 4.5041e-09, No Iterations 3
 T goes from min(T) [0 0 0 0 0 0 0] -0.00284721 to max(T) [0 0 0 0 0 0 0] 0.911271

ExecutionTime = 8.15 s  ClockTime = 156 s

Time = 0.9
Courant Number mean: 0.698172 max: 1.97555
DILUPBiCG:  Solving for T, Initial residual = 0.0338252, Final residual = 2.94925e-10, No Iterations 6
DILUPBiCG:  Solving for T, Initial residual = 0.00206391, Final residual = 8.90131e-09, No Iterations 4
DILUPBiCG:  Solving for T, Initial residual = 0.000220734, Final residual = 3.07057e-09, No Iterations 4
DILUPBiCG:  Solving for T, Initial residual = 3.6741e-05, Final residual = 3.98971e-09, No Iterations 3
 T goes from min(T) [0 0 0 0 0 0 0] -0.00352782 to max(T) [0 0 0 0 0 0 0] 0.910614

ExecutionTime = 8.29 s  ClockTime = 159 s

Time = 0.92
Courant Number mean: 0.691611 max: 1.96672
DILUPBiCG:  Solving for T, Initial residual = 0.0341823, Final residual = 4.49893e-09, No Iterations 5
DILUPBiCG:  Solving for T, Initial residual = 0.00207641, Final residual = 5.58349e-09, No Iterations 4
DILUPBiCG:  Solving for T, Initial residual = 0.000224715, Final residual = 2.16668e-09, No Iterations 4
DILUPBiCG:  Solving for T, Initial residual = 3.77567e-05, Final residual = 3.58178e-09, No Iterations 3
 T goes from min(T) [0 0 0 0 0 0 0] -0.00466783 to max(T) [0 0 0 0 0 0 0] 0.908337

ExecutionTime = 8.42 s  ClockTime = 161 s

Time = 0.94
Courant Number mean: 0.68517 max: 1.95603
DILUPBiCG:  Solving for T, Initial residual = 0.0344935, Final residual = 3.84527e-09, No Iterations 5
DILUPBiCG:  Solving for T, Initial residual = 0.00209917, Final residual = 5.30864e-09, No Iterations 4
DILUPBiCG:  Solving for T, Initial residual = 0.000226944, Final residual = 1.16371e-09, No Iterations 4
DILUPBiCG:  Solving for T, Initial residual = 3.8284e-05, Final residual = 3.43601e-09, No Iterations 3
 T goes from min(T) [0 0 0 0 0 0 0] -0.0054873 to max(T) [0 0 0 0 0 0 0] 0.902871

ExecutionTime = 8.56 s  ClockTime = 164 s

Time = 0.96
Courant Number mean: 0.678805 max: 1.94574
DILUPBiCG:  Solving for T, Initial residual = 0.0348292, Final residual = 3.86206e-09, No Iterations 5
DILUPBiCG:  Solving for T, Initial residual = 0.00211141, Final residual = 6.05025e-09, No Iterations 4
DILUPBiCG:  Solving for T, Initial residual = 0.000227702, Final residual = 9.94997e-09, No Iterations 3
DILUPBiCG:  Solving for T, Initial residual = 3.83391e-05, Final residual = 3.40121e-09, No Iterations 3
 T goes from min(T) [0 0 0 0 0 0 0] -0.00604438 to max(T) [0 0 0 0 0 0 0] 0.904738

ExecutionTime = 8.7 s  ClockTime = 167 s

Time = 0.98
Courant Number mean: 0.672577 max: 1.93566
DILUPBiCG:  Solving for T, Initial residual = 0.0351817, Final residual = 4.39752e-09, No Iterations 5
DILUPBiCG:  Solving for T, Initial residual = 0.00212562, Final residual = 5.97628e-09, No Iterations 4
DILUPBiCG:  Solving for T, Initial residual = 0.000227395, Final residual = 9.27978e-09, No Iterations 3
DILUPBiCG:  Solving for T, Initial residual = 3.83666e-05, Final residual = 3.25698e-09, No Iterations 3
 T goes from min(T) [0 0 0 0 0 0 0] -0.00759243 to max(T) [0 0 0 0 0 0 0] 0.901598

ExecutionTime = 8.83 s  ClockTime = 169 s

Time = 1
Courant Number mean: 0.666471 max: 1.92379
DILUPBiCG:  Solving for T, Initial residual = 0.0356011, Final residual = 5.31585e-09, No Iterations 5
DILUPBiCG:  Solving for T, Initial residual = 0.00213453, Final residual = 5.52722e-09, No Iterations 4
DILUPBiCG:  Solving for T, Initial residual = 0.000223992, Final residual = 8.43646e-09, No Iterations 3
DILUPBiCG:  Solving for T, Initial residual = 3.78216e-05, Final residual = 2.98799e-09, No Iterations 3
 T goes from min(T) [0 0 0 0 0 0 0] -0.00961638 to max(T) [0 0 0 0 0 0 0] 0.896118

ExecutionTime = 8.97 s  ClockTime = 172 s

Time = 1.02
Courant Number mean: 0.660561 max: 1.91019
DILUPBiCG:  Solving for T, Initial residual = 0.0359735, Final residual = 5.66782e-09, No Iterations 5
DILUPBiCG:  Solving for T, Initial residual = 0.00213731, Final residual = 4.72207e-09, No Iterations 4
DILUPBiCG:  Solving for T, Initial residual = 0.000221889, Final residual = 8.0248e-09, No Iterations 3
DILUPBiCG:  Solving for T, Initial residual = 3.71467e-05, Final residual = 2.63032e-09, No Iterations 3
 T goes from min(T) [0 0 0 0 0 0 0] -0.012753 to max(T) [0 0 0 0 0 0 0] 0.897075

ExecutionTime = 9.11 s  ClockTime = 174 s

Time = 1.04
Courant Number mean: 0.654807 max: 1.89492
DILUPBiCG:  Solving for T, Initial residual = 0.0363685, Final residual = 5.75656e-09, No Iterations 5
DILUPBiCG:  Solving for T, Initial residual = 0.00213737, Final residual = 4.07786e-09, No Iterations 4
DILUPBiCG:  Solving for T, Initial residual = 0.000220069, Final residual = 8.35421e-09, No Iterations 3
DILUPBiCG:  Solving for T, Initial residual = 3.66573e-05, Final residual = 2.24365e-09, No Iterations 3
 T goes from min(T) [0 0 0 0 0 0 0] -0.0158509 to max(T) [0 0 0 0 0 0 0] 0.891429

ExecutionTime = 9.25 s  ClockTime = 177 s

Time = 1.06
Courant Number mean: 0.649287 max: 1.87802
DILUPBiCG:  Solving for T, Initial residual = 0.0368101, Final residual = 6.75019e-09, No Iterations 5
DILUPBiCG:  Solving for T, Initial residual = 0.00213917, Final residual = 5.14793e-09, No Iterations 4
DILUPBiCG:  Solving for T, Initial residual = 0.000217163, Final residual = 6.89638e-10, No Iterations 4
DILUPBiCG:  Solving for T, Initial residual = 3.56478e-05, Final residual = 1.89675e-09, No Iterations 3
 T goes from min(T) [0 0 0 0 0 0 0] -0.0187152 to max(T) [0 0 0 0 0 0 0] 0.890709

ExecutionTime = 9.39 s  ClockTime = 180 s

Time = 1.08
Courant Number mean: 0.644129 max: 1.85958
DILUPBiCG:  Solving for T, Initial residual = 0.0372547, Final residual = 8.63674e-09, No Iterations 5
DILUPBiCG:  Solving for T, Initial residual = 0.00214795, Final residual = 3.26821e-10, No Iterations 5
DILUPBiCG:  Solving for T, Initial residual = 0.000214492, Final residual = 1.19868e-09, No Iterations 4
DILUPBiCG:  Solving for T, Initial residual = 3.44429e-05, Final residual = 1.59173e-09, No Iterations 3
 T goes from min(T) [0 0 0 0 0 0 0] -0.0203696 to max(T) [0 0 0 0 0 0 0] 0.889062

ExecutionTime = 9.53 s  ClockTime = 183 s

Time = 1.1
Courant Number mean: 0.639319 max: 1.83965
DILUPBiCG:  Solving for T, Initial residual = 0.0376747, Final residual = 3.12483e-10, No Iterations 6
DILUPBiCG:  Solving for T, Initial residual = 0.00215273, Final residual = 4.15628e-09, No Iterations 4
DILUPBiCG:  Solving for T, Initial residual = 0.00021027, Final residual = 2.37338e-09, No Iterations 4
DILUPBiCG:  Solving for T, Initial residual = 3.33684e-05, Final residual = 1.291e-09, No Iterations 3
 T goes from min(T) [0 0 0 0 0 0 0] -0.021676 to max(T) [0 0 0 0 0 0 0] 0.884359

ExecutionTime = 9.67 s  ClockTime = 185 s

Time = 1.12
Courant Number mean: 0.634906 max: 1.81843
DILUPBiCG:  Solving for T, Initial residual = 0.038089, Final residual = 1.62576e-10, No Iterations 6
DILUPBiCG:  Solving for T, Initial residual = 0.00215876, Final residual = 4.86891e-09, No Iterations 4
DILUPBiCG:  Solving for T, Initial residual = 0.000208263, Final residual = 9.35519e-09, No Iterations 3
DILUPBiCG:  Solving for T, Initial residual = 3.21035e-05, Final residual = 1.03387e-09, No Iterations 3
 T goes from min(T) [0 0 0 0 0 0 0] -0.0236876 to max(T) [0 0 0 0 0 0 0] 0.880967

ExecutionTime = 9.81 s  ClockTime = 188 s

Time = 1.14
Courant Number mean: 0.630826 max: 1.79688
DILUPBiCG:  Solving for T, Initial residual = 0.0385394, Final residual = 9.87551e-11, No Iterations 6
DILUPBiCG:  Solving for T, Initial residual = 0.00216589, Final residual = 4.66018e-09, No Iterations 4
DILUPBiCG:  Solving for T, Initial residual = 0.000205105, Final residual = 8.56446e-09, No Iterations 3
DILUPBiCG:  Solving for T, Initial residual = 3.10143e-05, Final residual = 8.54835e-10, No Iterations 3
 T goes from min(T) [0 0 0 0 0 0 0] -0.0235904 to max(T) [0 0 0 0 0 0 0] 0.878587

ExecutionTime = 9.95 s  ClockTime = 190 s

Time = 1.16
Courant Number mean: 0.627208 max: 1.77407
DILUPBiCG:  Solving for T, Initial residual = 0.0389983, Final residual = 6.70219e-11, No Iterations 6
DILUPBiCG:  Solving for T, Initial residual = 0.0021812, Final residual = 2.22398e-09, No Iterations 4
DILUPBiCG:  Solving for T, Initial residual = 0.00020237, Final residual = 9.06381e-09, No Iterations 3
DILUPBiCG:  Solving for T, Initial residual = 3.00427e-05, Final residual = 7.12866e-10, No Iterations 3
 T goes from min(T) [0 0 0 0 0 0 0] -0.0241802 to max(T) [0 0 0 0 0 0 0] 0.875924

ExecutionTime = 10.09 s  ClockTime = 193 s

Time = 1.18
Courant Number mean: 0.623917 max: 1.75007
DILUPBiCG:  Solving for T, Initial residual = 0.0393995, Final residual = 7.89238e-09, No Iterations 5
DILUPBiCG:  Solving for T, Initial residual = 0.00219352, Final residual = 1.56615e-09, No Iterations 4
DILUPBiCG:  Solving for T, Initial residual = 0.000200949, Final residual = 3.92905e-10, No Iterations 4
DILUPBiCG:  Solving for T, Initial residual = 2.88759e-05, Final residual = 5.79612e-10, No Iterations 3
 T goes from min(T) [0 0 0 0 0 0 0] -0.0259455 to max(T) [0 0 0 0 0 0 0] 0.872267

ExecutionTime = 10.23 s  ClockTime = 196 s

Time = 1.2
Courant Number mean: 0.621055 max: 1.72497
DILUPBiCG:  Solving for T, Initial residual = 0.0398888, Final residual = 5.20596e-09, No Iterations 5
DILUPBiCG:  Solving for T, Initial residual = 0.00220658, Final residual = 1.21823e-09, No Iterations 4
DILUPBiCG:  Solving for T, Initial residual = 0.000198682, Final residual = 4.46732e-10, No Iterations 4
DILUPBiCG:  Solving for T, Initial residual = 2.82085e-05, Final residual = 8.79632e-10, No Iterations 3
 T goes from min(T) [0 0 0 0 0 0 0] -0.0280731 to max(T) [0 0 0 0 0 0 0] 0.87122

ExecutionTime = 10.36 s  ClockTime = 198 s

Time = 1.22
Courant Number mean: 0.618564 max: 1.69886
DILUPBiCG:  Solving for T, Initial residual = 0.0403039, Final residual = 3.59327e-09, No Iterations 5
DILUPBiCG:  Solving for T, Initial residual = 0.00222937, Final residual = 9.7153e-10, No Iterations 4
DILUPBiCG:  Solving for T, Initial residual = 0.000197408, Final residual = 3.76319e-10, No Iterations 4
DILUPBiCG:  Solving for T, Initial residual = 2.73438e-05, Final residual = 4.84585e-10, No Iterations 3
 T goes from min(T) [0 0 0 0 0 0 0] -0.0301263 to max(T) [0 0 0 0 0 0 0] 0.869996

ExecutionTime = 10.53 s  ClockTime = 201 s

Time = 1.24
Courant Number mean: 0.616465 max: 1.67182
DILUPBiCG:  Solving for T, Initial residual = 0.0407447, Final residual = 2.5713e-09, No Iterations 5
DILUPBiCG:  Solving for T, Initial residual = 0.00224461, Final residual = 7.84915e-10, No Iterations 4
DILUPBiCG:  Solving for T, Initial residual = 0.000197745, Final residual = 2.67081e-10, No Iterations 4
DILUPBiCG:  Solving for T, Initial residual = 2.64615e-05, Final residual = 4.13404e-10, No Iterations 3
 T goes from min(T) [0 0 0 0 0 0 0] -0.0322027 to max(T) [0 0 0 0 0 0 0] 0.867653

ExecutionTime = 10.68 s  ClockTime = 204 s

Time = 1.26
Courant Number mean: 0.614753 max: 1.66079
DILUPBiCG:  Solving for T, Initial residual = 0.0412322, Final residual = 1.88598e-09, No Iterations 5
DILUPBiCG:  Solving for T, Initial residual = 0.00226431, Final residual = 6.38238e-10, No Iterations 4
DILUPBiCG:  Solving for T, Initial residual = 0.000196423, Final residual = 6.87574e-09, No Iterations 3
DILUPBiCG:  Solving for T, Initial residual = 2.61647e-05, Final residual = 3.5778e-10, No Iterations 3
 T goes from min(T) [0 0 0 0 0 0 0] -0.0341229 to max(T) [0 0 0 0 0 0 0] 0.863563

ExecutionTime = 10.82 s  ClockTime = 207 s

Time = 1.28
Courant Number mean: 0.613441 max: 1.66518
DILUPBiCG:  Solving for T, Initial residual = 0.0415675, Final residual = 1.37312e-09, No Iterations 5
DILUPBiCG:  Solving for T, Initial residual = 0.00228952, Final residual = 5.21116e-10, No Iterations 4
DILUPBiCG:  Solving for T, Initial residual = 0.000196908, Final residual = 4.53343e-09, No Iterations 3
DILUPBiCG:  Solving for T, Initial residual = 2.55756e-05, Final residual = 3.11828e-10, No Iterations 3
 T goes from min(T) [0 0 0 0 0 0 0] -0.0347761 to max(T) [0 0 0 0 0 0 0] 0.857017

ExecutionTime = 10.95 s  ClockTime = 209 s

Time = 1.3
Courant Number mean: 0.612493 max: 1.66793
DILUPBiCG:  Solving for T, Initial residual = 0.0420681, Final residual = 9.70834e-10, No Iterations 5
DILUPBiCG:  Solving for T, Initial residual = 0.00230934, Final residual = 4.26397e-10, No Iterations 4
DILUPBiCG:  Solving for T, Initial residual = 0.000197823, Final residual = 3.54068e-09, No Iterations 3
DILUPBiCG:  Solving for T, Initial residual = 2.51421e-05, Final residual = 2.86483e-10, No Iterations 3
 T goes from min(T) [0 0 0 0 0 0 0] -0.0382531 to max(T) [0 0 0 0 0 0 0] 0.856162

ExecutionTime = 11.08 s  ClockTime = 212 s

Time = 1.32
Courant Number mean: 0.611953 max: 1.66903
DILUPBiCG:  Solving for T, Initial residual = 0.042497, Final residual = 6.51763e-10, No Iterations 5
DILUPBiCG:  Solving for T, Initial residual = 0.00233485, Final residual = 3.53897e-10, No Iterations 4
DILUPBiCG:  Solving for T, Initial residual = 0.000197125, Final residual = 3.11145e-09, No Iterations 3
DILUPBiCG:  Solving for T, Initial residual = 2.50381e-05, Final residual = 2.73448e-10, No Iterations 3
 T goes from min(T) [0 0 0 0 0 0 0] -0.0413565 to max(T) [0 0 0 0 0 0 0] 0.858633

ExecutionTime = 11.21 s  ClockTime = 214 s

Time = 1.34
Courant Number mean: 0.611749 max: 1.6685
DILUPBiCG:  Solving for T, Initial residual = 0.0428503, Final residual = 4.11626e-10, No Iterations 5
DILUPBiCG:  Solving for T, Initial residual = 0.0023537, Final residual = 3.02434e-10, No Iterations 4
DILUPBiCG:  Solving for T, Initial residual = 0.000200268, Final residual = 3.02809e-09, No Iterations 3
DILUPBiCG:  Solving for T, Initial residual = 2.4694e-05, Final residual = 2.76594e-10, No Iterations 3
 T goes from min(T) [0 0 0 0 0 0 0] -0.0429167 to max(T) [0 0 0 0 0 0 0] 0.855504

ExecutionTime = 11.35 s  ClockTime = 217 s

Time = 1.36
Courant Number mean: 0.611929 max: 1.66636
DILUPBiCG:  Solving for T, Initial residual = 0.043288, Final residual = 2.55561e-10, No Iterations 5
DILUPBiCG:  Solving for T, Initial residual = 0.00238186, Final residual = 2.68201e-10, No Iterations 4
DILUPBiCG:  Solving for T, Initial residual = 0.00020088, Final residual = 3.18698e-09, No Iterations 3
DILUPBiCG:  Solving for T, Initial residual = 2.47325e-05, Final residual = 3.02707e-10, No Iterations 3
 T goes from min(T) [0 0 0 0 0 0 0] -0.0439501 to max(T) [0 0 0 0 0 0 0] 0.851607

ExecutionTime = 11.47 s  ClockTime = 219 s

Time = 1.38
Courant Number mean: 0.612449 max: 1.66262
DILUPBiCG:  Solving for T, Initial residual = 0.0436788, Final residual = 1.69924e-10, No Iterations 5
DILUPBiCG:  Solving for T, Initial residual = 0.00241051, Final residual = 2.39492e-10, No Iterations 4
DILUPBiCG:  Solving for T, Initial residual = 0.000202218, Final residual = 3.7737e-09, No Iterations 3
DILUPBiCG:  Solving for T, Initial residual = 2.48e-05, Final residual = 3.7642e-10, No Iterations 3
 T goes from min(T) [0 0 0 0 0 0 0] -0.0485698 to max(T) [0 0 0 0 0 0 0] 0.850084

ExecutionTime = 11.61 s  ClockTime = 222 s

Time = 1.4
Courant Number mean: 0.613248 max: 1.6578
DILUPBiCG:  Solving for T, Initial residual = 0.0441374, Final residual = 1.40982e-10, No Iterations 5
DILUPBiCG:  Solving for T, Initial residual = 0.00243724, Final residual = 2.0963e-10, No Iterations 4
DILUPBiCG:  Solving for T, Initial residual = 0.000206044, Final residual = 5.752e-09, No Iterations 3
DILUPBiCG:  Solving for T, Initial residual = 2.47753e-05, Final residual = 9.33807e-09, No Iterations 2
 T goes from min(T) [0 0 0 0 0 0 0] -0.0505911 to max(T) [0 0 0 0 0 0 0] 0.843551

ExecutionTime = 11.75 s  ClockTime = 224 s

Time = 1.42
Courant Number mean: 0.614422 max: 1.65182
DILUPBiCG:  Solving for T, Initial residual = 0.0444903, Final residual = 1.33471e-10, No Iterations 5
DILUPBiCG:  Solving for T, Initial residual = 0.00246349, Final residual = 1.80657e-10, No Iterations 4
DILUPBiCG:  Solving for T, Initial residual = 0.000206138, Final residual = 1.69518e-11, No Iterations 4
DILUPBiCG:  Solving for T, Initial residual = 2.49632e-05, Final residual = 8.71948e-09, No Iterations 2
 T goes from min(T) [0 0 0 0 0 0 0] -0.0507177 to max(T) [0 0 0 0 0 0 0] 0.844541

ExecutionTime = 11.89 s  ClockTime = 227 s

Time = 1.44
Courant Number mean: 0.615806 max: 1.64429
DILUPBiCG:  Solving for T, Initial residual = 0.0448321, Final residual = 1.26805e-10, No Iterations 5
DILUPBiCG:  Solving for T, Initial residual = 0.00248778, Final residual = 1.54849e-10, No Iterations 4
DILUPBiCG:  Solving for T, Initial residual = 0.000211375, Final residual = 3.8084e-09, No Iterations 3
DILUPBiCG:  Solving for T, Initial residual = 2.52227e-05, Final residual = 8.10559e-09, No Iterations 2
 T goes from min(T) [0 0 0 0 0 0 0] -0.0560509 to max(T) [0 0 0 0 0 0 0] 0.841759

ExecutionTime = 12.02 s  ClockTime = 229 s

Time = 1.46
Courant Number mean: 0.617455 max: 1.63526
DILUPBiCG:  Solving for T, Initial residual = 0.0452421, Final residual = 8.28941e-09, No Iterations 4
DILUPBiCG:  Solving for T, Initial residual = 0.00251934, Final residual = 1.36586e-10, No Iterations 4
DILUPBiCG:  Solving for T, Initial residual = 0.000213692, Final residual = 1.60026e-09, No Iterations 3
DILUPBiCG:  Solving for T, Initial residual = 2.54612e-05, Final residual = 7.39666e-09, No Iterations 2
 T goes from min(T) [0 0 0 0 0 0 0] -0.0571721 to max(T) [0 0 0 0 0 0 0] 0.839633

ExecutionTime = 12.15 s  ClockTime = 231 s

Time = 1.48
Courant Number mean: 0.619315 max: 1.62478
DILUPBiCG:  Solving for T, Initial residual = 0.0456055, Final residual = 5.35447e-09, No Iterations 4
DILUPBiCG:  Solving for T, Initial residual = 0.00254727, Final residual = 1.4287e-10, No Iterations 4
DILUPBiCG:  Solving for T, Initial residual = 0.0002154, Final residual = 1.03309e-09, No Iterations 3
DILUPBiCG:  Solving for T, Initial residual = 2.57724e-05, Final residual = 6.66131e-09, No Iterations 2
 T goes from min(T) [0 0 0 0 0 0 0] -0.0579535 to max(T) [0 0 0 0 0 0 0] 0.837857

ExecutionTime = 12.29 s  ClockTime = 234 s

Time = 1.5
Courant Number mean: 0.621332 max: 1.61289
DILUPBiCG:  Solving for T, Initial residual = 0.0460294, Final residual = 4.5618e-09, No Iterations 4
DILUPBiCG:  Solving for T, Initial residual = 0.00257339, Final residual = 8.53913e-09, No Iterations 3
DILUPBiCG:  Solving for T, Initial residual = 0.00022127, Final residual = 8.3377e-10, No Iterations 3
DILUPBiCG:  Solving for T, Initial residual = 2.6136e-05, Final residual = 6.03044e-09, No Iterations 2
 T goes from min(T) [0 0 0 0 0 0 0] -0.0642714 to max(T) [0 0 0 0 0 0 0] 0.837177

ExecutionTime = 12.42 s  ClockTime = 236 s

Time = 1.52
Courant Number mean: 0.623567 max: 1.59965
DILUPBiCG:  Solving for T, Initial residual = 0.0463202, Final residual = 4.41927e-09, No Iterations 4
DILUPBiCG:  Solving for T, Initial residual = 0.00260657, Final residual = 7.06044e-09, No Iterations 3
DILUPBiCG:  Solving for T, Initial residual = 0.000221639, Final residual = 7.47459e-10, No Iterations 3
DILUPBiCG:  Solving for T, Initial residual = 2.64341e-05, Final residual = 5.52857e-09, No Iterations 2
 T goes from min(T) [0 0 0 0 0 0 0] -0.0607274 to max(T) [0 0 0 0 0 0 0] 0.836629

ExecutionTime = 12.59 s  ClockTime = 239 s

Time = 1.54
Courant Number mean: 0.625941 max: 1.58512
DILUPBiCG:  Solving for T, Initial residual = 0.0467011, Final residual = 4.42135e-09, No Iterations 4
DILUPBiCG:  Solving for T, Initial residual = 0.00262883, Final residual = 6.55819e-09, No Iterations 3
DILUPBiCG:  Solving for T, Initial residual = 0.000227675, Final residual = 7.139e-10, No Iterations 3
DILUPBiCG:  Solving for T, Initial residual = 2.67769e-05, Final residual = 5.32392e-09, No Iterations 2
 T goes from min(T) [0 0 0 0 0 0 0] -0.0667826 to max(T) [0 0 0 0 0 0 0] 0.836273

ExecutionTime = 12.73 s  ClockTime = 241 s

Time = 1.56
Courant Number mean: 0.628444 max: 1.57005
DILUPBiCG:  Solving for T, Initial residual = 0.0470219, Final residual = 4.40697e-09, No Iterations 4
DILUPBiCG:  Solving for T, Initial residual = 0.00266097, Final residual = 6.30528e-09, No Iterations 3
DILUPBiCG:  Solving for T, Initial residual = 0.000229971, Final residual = 7.06273e-10, No Iterations 3
DILUPBiCG:  Solving for T, Initial residual = 2.71439e-05, Final residual = 5.39905e-09, No Iterations 2
 T goes from min(T) [0 0 0 0 0 0 0] -0.0708438 to max(T) [0 0 0 0 0 0 0] 0.837155

ExecutionTime = 12.89 s  ClockTime = 244 s

Time = 1.58
Courant Number mean: 0.631058 max: 1.55587
DILUPBiCG:  Solving for T, Initial residual = 0.0472805, Final residual = 4.36842e-09, No Iterations 4
DILUPBiCG:  Solving for T, Initial residual = 0.00268569, Final residual = 6.17104e-09, No Iterations 3
DILUPBiCG:  Solving for T, Initial residual = 0.000233274, Final residual = 7.04056e-10, No Iterations 3
DILUPBiCG:  Solving for T, Initial residual = 2.75244e-05, Final residual = 5.66647e-09, No Iterations 2
 T goes from min(T) [0 0 0 0 0 0 0] -0.0688191 to max(T) [0 0 0 0 0 0 0] 0.836161

ExecutionTime = 13.02 s  ClockTime = 246 s

Time = 1.6
Courant Number mean: 0.633757 max: 1.54047
DILUPBiCG:  Solving for T, Initial residual = 0.0477202, Final residual = 4.30729e-09, No Iterations 4
DILUPBiCG:  Solving for T, Initial residual = 0.00270605, Final residual = 6.14147e-09, No Iterations 3
DILUPBiCG:  Solving for T, Initial residual = 0.000237436, Final residual = 6.92587e-10, No Iterations 3
DILUPBiCG:  Solving for T, Initial residual = 2.7958e-05, Final residual = 6.00984e-09, No Iterations 2
 T goes from min(T) [0 0 0 0 0 0 0] -0.0760483 to max(T) [0 0 0 0 0 0 0] 0.832504

ExecutionTime = 13.14 s  ClockTime = 248 s

Time = 1.62
Courant Number mean: 0.63655 max: 1.52399
DILUPBiCG:  Solving for T, Initial residual = 0.0478781, Final residual = 4.24831e-09, No Iterations 4
DILUPBiCG:  Solving for T, Initial residual = 0.00274177, Final residual = 6.33489e-09, No Iterations 3
DILUPBiCG:  Solving for T, Initial residual = 0.000239326, Final residual = 6.76393e-10, No Iterations 3
DILUPBiCG:  Solving for T, Initial residual = 2.83225e-05, Final residual = 6.33345e-09, No Iterations 2
 T goes from min(T) [0 0 0 0 0 0 0] -0.0718386 to max(T) [0 0 0 0 0 0 0] 0.833259

ExecutionTime = 13.27 s  ClockTime = 250 s

Time = 1.64
Courant Number mean: 0.639425 max: 1.50898
DILUPBiCG:  Solving for T, Initial residual = 0.0483318, Final residual = 4.35974e-09, No Iterations 4
DILUPBiCG:  Solving for T, Initial residual = 0.00275739, Final residual = 6.79751e-09, No Iterations 3
DILUPBiCG:  Solving for T, Initial residual = 0.000244193, Final residual = 7.10501e-10, No Iterations 3
DILUPBiCG:  Solving for T, Initial residual = 2.87894e-05, Final residual = 6.74152e-09, No Iterations 2
 T goes from min(T) [0 0 0 0 0 0 0] -0.0784874 to max(T) [0 0 0 0 0 0 0] 0.835291

ExecutionTime = 13.39 s  ClockTime = 252 s

Time = 1.66
Courant Number mean: 0.642353 max: 1.49283
DILUPBiCG:  Solving for T, Initial residual = 0.0485627, Final residual = 8.71651e-09, No Iterations 4
DILUPBiCG:  Solving for T, Initial residual = 0.0027898, Final residual = 7.60046e-09, No Iterations 3
DILUPBiCG:  Solving for T, Initial residual = 0.00024622, Final residual = 7.94651e-10, No Iterations 3
DILUPBiCG:  Solving for T, Initial residual = 2.93697e-05, Final residual = 7.37414e-09, No Iterations 2
 T goes from min(T) [0 0 0 0 0 0 0] -0.0814039 to max(T) [0 0 0 0 0 0 0] 0.837065

ExecutionTime = 13.52 s  ClockTime = 255 s

Time = 1.68
Courant Number mean: 0.64536 max: 1.4763
DILUPBiCG:  Solving for T, Initial residual = 0.0488099, Final residual = 3.77346e-10, No Iterations 5
DILUPBiCG:  Solving for T, Initial residual = 0.00281508, Final residual = 8.50217e-09, No Iterations 3
DILUPBiCG:  Solving for T, Initial residual = 0.000251505, Final residual = 8.98359e-10, No Iterations 3
DILUPBiCG:  Solving for T, Initial residual = 2.99121e-05, Final residual = 8.08838e-09, No Iterations 2
 T goes from min(T) [0 0 0 0 0 0 0] -0.0810695 to max(T) [0 0 0 0 0 0 0] 0.833938

ExecutionTime = 13.65 s  ClockTime = 257 s

Time = 1.7
Courant Number mean: 0.648422 max: 1.45984
DILUPBiCG:  Solving for T, Initial residual = 0.0492324, Final residual = 9.54367e-09, No Iterations 4
DILUPBiCG:  Solving for T, Initial residual = 0.00284715, Final residual = 9.05089e-09, No Iterations 3
DILUPBiCG:  Solving for T, Initial residual = 0.000254144, Final residual = 9.53286e-10, No Iterations 3
DILUPBiCG:  Solving for T, Initial residual = 3.05089e-05, Final residual = 8.69551e-09, No Iterations 2
 T goes from min(T) [0 0 0 0 0 0 0] -0.0871528 to max(T) [0 0 0 0 0 0 0] 0.831606

ExecutionTime = 13.78 s  ClockTime = 259 s

Time = 1.72
Courant Number mean: 0.651537 max: 1.44264
DILUPBiCG:  Solving for T, Initial residual = 0.0493184, Final residual = 9.55654e-09, No Iterations 4
DILUPBiCG:  Solving for T, Initial residual = 0.00286636, Final residual = 9.23235e-09, No Iterations 3
DILUPBiCG:  Solving for T, Initial residual = 0.000258702, Final residual = 9.56856e-10, No Iterations 3
DILUPBiCG:  Solving for T, Initial residual = 3.11761e-05, Final residual = 9.04616e-09, No Iterations 2
 T goes from min(T) [0 0 0 0 0 0 0] -0.0838753 to max(T) [0 0 0 0 0 0 0] 0.835278

ExecutionTime = 13.9 s  ClockTime = 261 s

Time = 1.74
Courant Number mean: 0.65471 max: 1.42642
DILUPBiCG:  Solving for T, Initial residual = 0.0497249, Final residual = 1.94614e-10, No Iterations 5
DILUPBiCG:  Solving for T, Initial residual = 0.00289484, Final residual = 8.33714e-10, No Iterations 4
DILUPBiCG:  Solving for T, Initial residual = 0.000263224, Final residual = 1.08505e-09, No Iterations 3
DILUPBiCG:  Solving for T, Initial residual = 3.20029e-05, Final residual = 1.50257e-10, No Iterations 3
 T goes from min(T) [0 0 0 0 0 0 0] -0.0901697 to max(T) [0 0 0 0 0 0 0] 0.836358

ExecutionTime = 14.04 s  ClockTime = 263 s

Time = 1.76
Courant Number mean: 0.65794 max: 1.40935
DILUPBiCG:  Solving for T, Initial residual = 0.0497946, Final residual = 2.39794e-10, No Iterations 5
DILUPBiCG:  Solving for T, Initial residual = 0.00292988, Final residual = 1.1738e-11, No Iterations 5
DILUPBiCG:  Solving for T, Initial residual = 0.000268507, Final residual = 1.46451e-09, No Iterations 3
DILUPBiCG:  Solving for T, Initial residual = 3.28338e-05, Final residual = 2.58401e-10, No Iterations 3
 T goes from min(T) [0 0 0 0 0 0 0] -0.0863624 to max(T) [0 0 0 0 0 0 0] 0.831377

ExecutionTime = 14.17 s  ClockTime = 266 s

Time = 1.78
Courant Number mean: 0.66122 max: 1.39138
DILUPBiCG:  Solving for T, Initial residual = 0.050206, Final residual = 3.06503e-10, No Iterations 5
DILUPBiCG:  Solving for T, Initial residual = 0.00296311, Final residual = 7.63893e-10, No Iterations 4
DILUPBiCG:  Solving for T, Initial residual = 0.000274064, Final residual = 2.31485e-09, No Iterations 3
DILUPBiCG:  Solving for T, Initial residual = 3.40153e-05, Final residual = 3.75496e-10, No Iterations 3
 T goes from min(T) [0 0 0 0 0 0 0] -0.0925346 to max(T) [0 0 0 0 0 0 0] 0.829817

ExecutionTime = 14.31 s  ClockTime = 268 s

Time = 1.8
Courant Number mean: 0.664531 max: 1.37438
DILUPBiCG:  Solving for T, Initial residual = 0.0503784, Final residual = 5.15575e-10, No Iterations 5
DILUPBiCG:  Solving for T, Initial residual = 0.00299656, Final residual = 6.10003e-10, No Iterations 4
DILUPBiCG:  Solving for T, Initial residual = 0.000279132, Final residual = 4.59172e-09, No Iterations 3
DILUPBiCG:  Solving for T, Initial residual = 3.49844e-05, Final residual = 5.2276e-10, No Iterations 3
 T goes from min(T) [0 0 0 0 0 0 0] -0.0932072 to max(T) [0 0 0 0 0 0 0] 0.830021

ExecutionTime = 14.44 s  ClockTime = 270 s

Time = 1.82
Courant Number mean: 0.667892 max: 1.35683
DILUPBiCG:  Solving for T, Initial residual = 0.0506213, Final residual = 9.89295e-09, No Iterations 4
DILUPBiCG:  Solving for T, Initial residual = 0.00301971, Final residual = 5.79489e-10, No Iterations 4
DILUPBiCG:  Solving for T, Initial residual = 0.000285837, Final residual = 5.76557e-11, No Iterations 4
DILUPBiCG:  Solving for T, Initial residual = 3.61155e-05, Final residual = 5.79439e-10, No Iterations 3
 T goes from min(T) [0 0 0 0 0 0 0] -0.0947752 to max(T) [0 0 0 0 0 0 0] 0.828223

ExecutionTime = 14.57 s  ClockTime = 272 s

Time = 1.84
Courant Number mean: 0.671277 max: 1.33846
DILUPBiCG:  Solving for T, Initial residual = 0.0508149, Final residual = 9.69656e-09, No Iterations 4
DILUPBiCG:  Solving for T, Initial residual = 0.00305268, Final residual = 5.64525e-10, No Iterations 4
DILUPBiCG:  Solving for T, Initial residual = 0.000290476, Final residual = 6.99923e-09, No Iterations 3
DILUPBiCG:  Solving for T, Initial residual = 3.74942e-05, Final residual = 4.66577e-10, No Iterations 3
 T goes from min(T) [0 0 0 0 0 0 0] -0.0988666 to max(T) [0 0 0 0 0 0 0] 0.818364

ExecutionTime = 14.7 s  ClockTime = 275 s

Time = 1.86
Courant Number mean: 0.674682 max: 1.32063
DILUPBiCG:  Solving for T, Initial residual = 0.0509344, Final residual = 9.70251e-09, No Iterations 4
DILUPBiCG:  Solving for T, Initial residual = 0.00307585, Final residual = 6.36188e-10, No Iterations 4
DILUPBiCG:  Solving for T, Initial residual = 0.000298753, Final residual = 2.32314e-09, No Iterations 3
DILUPBiCG:  Solving for T, Initial residual = 3.86517e-05, Final residual = 5.01268e-10, No Iterations 3
 T goes from min(T) [0 0 0 0 0 0 0] -0.097184 to max(T) [0 0 0 0 0 0 0] 0.825957

ExecutionTime = 14.84 s  ClockTime = 277 s

Time = 1.88
Courant Number mean: 0.678093 max: 1.30274
DILUPBiCG:  Solving for T, Initial residual = 0.0511352, Final residual = 3.02205e-10, No Iterations 5
DILUPBiCG:  Solving for T, Initial residual = 0.00312535, Final residual = 7.3321e-10, No Iterations 4
DILUPBiCG:  Solving for T, Initial residual = 0.000304126, Final residual = 5.36955e-09, No Iterations 3
DILUPBiCG:  Solving for T, Initial residual = 4.00674e-05, Final residual = 5.2186e-10, No Iterations 3
 T goes from min(T) [0 0 0 0 0 0 0] -0.103005 to max(T) [0 0 0 0 0 0 0] 0.827063

ExecutionTime = 15.02 s  ClockTime = 280 s

Time = 1.9
Courant Number mean: 0.6815 max: 1.28412
DILUPBiCG:  Solving for T, Initial residual = 0.0512771, Final residual = 3.68351e-10, No Iterations 5
DILUPBiCG:  Solving for T, Initial residual = 0.00314687, Final residual = 8.63755e-10, No Iterations 4
DILUPBiCG:  Solving for T, Initial residual = 0.000312437, Final residual = 9.39186e-09, No Iterations 3
DILUPBiCG:  Solving for T, Initial residual = 4.16471e-05, Final residual = 5.35261e-10, No Iterations 3
 T goes from min(T) [0 0 0 0 0 0 0] -0.0996542 to max(T) [0 0 0 0 0 0 0] 0.81825

ExecutionTime = 15.17 s  ClockTime = 283 s

Time = 1.92
Courant Number mean: 0.684881 max: 1.26564
DILUPBiCG:  Solving for T, Initial residual = 0.0514694, Final residual = 8.04353e-10, No Iterations 5
DILUPBiCG:  Solving for T, Initial residual = 0.00319939, Final residual = 9.03548e-10, No Iterations 4
DILUPBiCG:  Solving for T, Initial residual = 0.000317285, Final residual = 9.84801e-11, No Iterations 4
DILUPBiCG:  Solving for T, Initial residual = 4.28041e-05, Final residual = 5.58216e-10, No Iterations 3
 T goes from min(T) [0 0 0 0 0 0 0] -0.106199 to max(T) [0 0 0 0 0 0 0] 0.818159

ExecutionTime = 15.32 s  ClockTime = 285 s

Time = 1.94
Courant Number mean: 0.688209 max: 1.24754
DILUPBiCG:  Solving for T, Initial residual = 0.0515614, Final residual = 4.08147e-10, No Iterations 5
DILUPBiCG:  Solving for T, Initial residual = 0.00321209, Final residual = 9.11151e-10, No Iterations 4
DILUPBiCG:  Solving for T, Initial residual = 0.000324924, Final residual = 9.61162e-11, No Iterations 4
DILUPBiCG:  Solving for T, Initial residual = 4.39014e-05, Final residual = 6.19119e-10, No Iterations 3
 T goes from min(T) [0 0 0 0 0 0 0] -0.101408 to max(T) [0 0 0 0 0 0 0] 0.812908

ExecutionTime = 15.46 s  ClockTime = 288 s

Time = 1.96
Courant Number mean: 0.691436 max: 1.22882
DILUPBiCG:  Solving for T, Initial residual = 0.0516955, Final residual = 3.83808e-10, No Iterations 5
DILUPBiCG:  Solving for T, Initial residual = 0.00325014, Final residual = 8.61466e-10, No Iterations 4
DILUPBiCG:  Solving for T, Initial residual = 0.000328719, Final residual = 1.02881e-10, No Iterations 4
DILUPBiCG:  Solving for T, Initial residual = 4.44999e-05, Final residual = 6.00368e-10, No Iterations 3
 T goes from min(T) [0 0 0 0 0 0 0] -0.110038 to max(T) [0 0 0 0 0 0 0] 0.812042

ExecutionTime = 15.61 s  ClockTime = 290 s

Time = 1.98
Courant Number mean: 0.694424 max: 1.21014
DILUPBiCG:  Solving for T, Initial residual = 0.0517792, Final residual = 3.60267e-10, No Iterations 5
DILUPBiCG:  Solving for T, Initial residual = 0.00325535, Final residual = 8.942e-10, No Iterations 4
DILUPBiCG:  Solving for T, Initial residual = 0.000332394, Final residual = 8.60608e-09, No Iterations 3
DILUPBiCG:  Solving for T, Initial residual = 4.51043e-05, Final residual = 5.0912e-10, No Iterations 3
 T goes from min(T) [0 0 0 0 0 0 0] -0.105732 to max(T) [0 0 0 0 0 0 0] 0.797028

ExecutionTime = 15.75 s  ClockTime = 293 s

Time = 2
Courant Number mean: 0.697103 max: 1.19172
DILUPBiCG:  Solving for T, Initial residual = 0.0519042, Final residual = 3.23755e-10, No Iterations 5
DILUPBiCG:  Solving for T, Initial residual = 0.00327387, Final residual = 8.63666e-10, No Iterations 4
DILUPBiCG:  Solving for T, Initial residual = 0.000335581, Final residual = 4.8648e-09, No Iterations 3
DILUPBiCG:  Solving for T, Initial residual = 4.56378e-05, Final residual = 1.87459e-09, No Iterations 3
 T goes from min(T) [0 0 0 0 0 0 0] -0.113147 to max(T) [0 0 0 0 0 0 0] 0.792639

ExecutionTime = 15.88 s  ClockTime = 295 s

Time = 2.02
Courant Number mean: 0.699464 max: 1.17302
DILUPBiCG:  Solving for T, Initial residual = 0.0519045, Final residual = 3.1067e-10, No Iterations 5
DILUPBiCG:  Solving for T, Initial residual = 0.00328424, Final residual = 8.26747e-10, No Iterations 4
DILUPBiCG:  Solving for T, Initial residual = 0.000336381, Final residual = 3.93066e-09, No Iterations 3
DILUPBiCG:  Solving for T, Initial residual = 4.54193e-05, Final residual = 6.9622e-09, No Iterations 3
 T goes from min(T) [0 0 0 0 0 0 0] -0.106277 to max(T) [0 0 0 0 0 0 0] 0.780461

ExecutionTime = 16.02 s  ClockTime = 297 s

Time = 2.04
Courant Number mean: 0.701504 max: 1.15437
DILUPBiCG:  Solving for T, Initial residual = 0.0521453, Final residual = 3.01556e-10, No Iterations 5
DILUPBiCG:  Solving for T, Initial residual = 0.00328752, Final residual = 8.08792e-10, No Iterations 4
DILUPBiCG:  Solving for T, Initial residual = 0.000338258, Final residual = 3.62843e-09, No Iterations 3
DILUPBiCG:  Solving for T, Initial residual = 4.55307e-05, Final residual = 1.23869e-09, No Iterations 3
 T goes from min(T) [0 0 0 0 0 0 0] -0.116097 to max(T) [0 0 0 0 0 0 0] 0.775569

ExecutionTime = 16.15 s  ClockTime = 299 s

Time = 2.06
Courant Number mean: 0.703222 max: 1.13572
DILUPBiCG:  Solving for T, Initial residual = 0.0519935, Final residual = 2.96919e-10, No Iterations 5
DILUPBiCG:  Solving for T, Initial residual = 0.00328796, Final residual = 8.95514e-10, No Iterations 4
DILUPBiCG:  Solving for T, Initial residual = 0.000336067, Final residual = 3.62464e-09, No Iterations 3
DILUPBiCG:  Solving for T, Initial residual = 4.50378e-05, Final residual = 4.19885e-10, No Iterations 3
 T goes from min(T) [0 0 0 0 0 0 0] -0.1107 to max(T) [0 0 0 0 0 0 0] 0.768324

ExecutionTime = 16.28 s  ClockTime = 302 s

Time = 2.08
Courant Number mean: 0.704619 max: 1.11719
DILUPBiCG:  Solving for T, Initial residual = 0.0522382, Final residual = 2.85372e-10, No Iterations 5
DILUPBiCG:  Solving for T, Initial residual = 0.00328882, Final residual = 9.77062e-10, No Iterations 4
DILUPBiCG:  Solving for T, Initial residual = 0.000335203, Final residual = 3.6111e-09, No Iterations 3
DILUPBiCG:  Solving for T, Initial residual = 4.43605e-05, Final residual = 4.07348e-10, No Iterations 3
 T goes from min(T) [0 0 0 0 0 0 0] -0.119463 to max(T) [0 0 0 0 0 0 0] 0.757835

ExecutionTime = 16.42 s  ClockTime = 304 s

Time = 2.1
Courant Number mean: 0.705695 max: 1.0985
DILUPBiCG:  Solving for T, Initial residual = 0.0520392, Final residual = 2.74737e-10, No Iterations 5
DILUPBiCG:  Solving for T, Initial residual = 0.00327669, Final residual = 9.00204e-10, No Iterations 4
DILUPBiCG:  Solving for T, Initial residual = 0.000331681, Final residual = 3.44062e-09, No Iterations 3
DILUPBiCG:  Solving for T, Initial residual = 4.36309e-05, Final residual = 4.37303e-10, No Iterations 3
 T goes from min(T) [0 0 0 0 0 0 0] -0.116465 to max(T) [0 0 0 0 0 0 0] 0.763522

ExecutionTime = 16.54 s  ClockTime = 306 s

Time = 2.12
Courant Number mean: 0.706455 max: 1.08001
DILUPBiCG:  Solving for T, Initial residual = 0.0522884, Final residual = 2.67985e-10, No Iterations 5
DILUPBiCG:  Solving for T, Initial residual = 0.0032704, Final residual = 7.79739e-10, No Iterations 4
DILUPBiCG:  Solving for T, Initial residual = 0.000329119, Final residual = 3.07206e-09, No Iterations 3
DILUPBiCG:  Solving for T, Initial residual = 4.26575e-05, Final residual = 4.54459e-10, No Iterations 3
 T goes from min(T) [0 0 0 0 0 0 0] -0.122504 to max(T) [0 0 0 0 0 0 0] 0.757077

ExecutionTime = 16.68 s  ClockTime = 308 s

Time = 2.14
Courant Number mean: 0.706904 max: 1.06177
DILUPBiCG:  Solving for T, Initial residual = 0.0521748, Final residual = 2.71477e-10, No Iterations 5
DILUPBiCG:  Solving for T, Initial residual = 0.00325731, Final residual = 6.88452e-10, No Iterations 4
DILUPBiCG:  Solving for T, Initial residual = 0.000324999, Final residual = 2.84443e-09, No Iterations 3
DILUPBiCG:  Solving for T, Initial residual = 4.16327e-05, Final residual = 4.29323e-10, No Iterations 3
 T goes from min(T) [0 0 0 0 0 0 0] -0.121235 to max(T) [0 0 0 0 0 0 0] 0.759813

ExecutionTime = 16.82 s  ClockTime = 311 s

Time = 2.16
Courant Number mean: 0.707048 max: 1.04329
DILUPBiCG:  Solving for T, Initial residual = 0.0523816, Final residual = 9.99614e-09, No Iterations 4
DILUPBiCG:  Solving for T, Initial residual = 0.00324222, Final residual = 6.29414e-10, No Iterations 4
DILUPBiCG:  Solving for T, Initial residual = 0.000321187, Final residual = 2.70548e-09, No Iterations 3
DILUPBiCG:  Solving for T, Initial residual = 4.07165e-05, Final residual = 3.57678e-10, No Iterations 3
 T goes from min(T) [0 0 0 0 0 0 0] -0.124922 to max(T) [0 0 0 0 0 0 0] 0.75981

ExecutionTime = 16.95 s  ClockTime = 313 s

Time = 2.18
Courant Number mean: 0.706895 max: 1.02501
DILUPBiCG:  Solving for T, Initial residual = 0.0522312, Final residual = 9.42849e-09, No Iterations 4
DILUPBiCG:  Solving for T, Initial residual = 0.00322954, Final residual = 6.07101e-10, No Iterations 4
DILUPBiCG:  Solving for T, Initial residual = 0.000317845, Final residual = 2.67278e-09, No Iterations 3
DILUPBiCG:  Solving for T, Initial residual = 3.95842e-05, Final residual = 2.87524e-10, No Iterations 3
 T goes from min(T) [0 0 0 0 0 0 0] -0.124337 to max(T) [0 0 0 0 0 0 0] 0.749605

ExecutionTime = 17.08 s  ClockTime = 315 s

Time = 2.2
Courant Number mean: 0.706455 max: 1.00718
DILUPBiCG:  Solving for T, Initial residual = 0.0524185, Final residual = 8.97684e-09, No Iterations 4
DILUPBiCG:  Solving for T, Initial residual = 0.00321865, Final residual = 5.78724e-10, No Iterations 4
DILUPBiCG:  Solving for T, Initial residual = 0.000312899, Final residual = 2.59896e-09, No Iterations 3
DILUPBiCG:  Solving for T, Initial residual = 3.88492e-05, Final residual = 2.78473e-10, No Iterations 3
 T goes from min(T) [0 0 0 0 0 0 0] -0.127652 to max(T) [0 0 0 0 0 0 0] 0.75701

ExecutionTime = 17.21 s  ClockTime = 317 s

Time = 2.22
Courant Number mean: 0.705738 max: 0.989214
DILUPBiCG:  Solving for T, Initial residual = 0.052355, Final residual = 8.58344e-09, No Iterations 4
DILUPBiCG:  Solving for T, Initial residual = 0.00320463, Final residual = 5.5102e-10, No Iterations 4
DILUPBiCG:  Solving for T, Initial residual = 0.000310554, Final residual = 2.52784e-09, No Iterations 3
DILUPBiCG:  Solving for T, Initial residual = 3.78315e-05, Final residual = 2.58786e-10, No Iterations 3
 T goes from min(T) [0 0 0 0 0 0 0] -0.129445 to max(T) [0 0 0 0 0 0 0] 0.750713

ExecutionTime = 17.36 s  ClockTime = 320 s

Time = 2.24
Courant Number mean: 0.704757 max: 0.971194
DILUPBiCG:  Solving for T, Initial residual = 0.052507, Final residual = 8.19547e-09, No Iterations 4
DILUPBiCG:  Solving for T, Initial residual = 0.00318869, Final residual = 5.13143e-10, No Iterations 4
DILUPBiCG:  Solving for T, Initial residual = 0.000305306, Final residual = 2.39102e-09, No Iterations 3
DILUPBiCG:  Solving for T, Initial residual = 3.69785e-05, Final residual = 2.41479e-10, No Iterations 3
 T goes from min(T) [0 0 0 0 0 0 0] -0.129448 to max(T) [0 0 0 0 0 0 0] 0.751976

ExecutionTime = 17.49 s  ClockTime = 322 s

Time = 2.26
Courant Number mean: 0.703525 max: 0.953833
DILUPBiCG:  Solving for T, Initial residual = 0.0524177, Final residual = 7.81427e-09, No Iterations 4
DILUPBiCG:  Solving for T, Initial residual = 0.0031719, Final residual = 4.81502e-10, No Iterations 4
DILUPBiCG:  Solving for T, Initial residual = 0.000302166, Final residual = 2.31442e-09, No Iterations 3
DILUPBiCG:  Solving for T, Initial residual = 3.61397e-05, Final residual = 2.30301e-10, No Iterations 3
 T goes from min(T) [0 0 0 0 0 0 0] -0.132839 to max(T) [0 0 0 0 0 0 0] 0.753769

ExecutionTime = 17.62 s  ClockTime = 324 s

Time = 2.28
Courant Number mean: 0.702056 max: 0.936489
DILUPBiCG:  Solving for T, Initial residual = 0.0524929, Final residual = 7.46321e-09, No Iterations 4
DILUPBiCG:  Solving for T, Initial residual = 0.00316432, Final residual = 4.51993e-10, No Iterations 4
DILUPBiCG:  Solving for T, Initial residual = 0.000297602, Final residual = 2.18794e-09, No Iterations 3
DILUPBiCG:  Solving for T, Initial residual = 3.53582e-05, Final residual = 2.25242e-10, No Iterations 3
 T goes from min(T) [0 0 0 0 0 0 0] -0.131463 to max(T) [0 0 0 0 0 0 0] 0.743503

ExecutionTime = 17.75 s  ClockTime = 327 s

Time = 2.3
Courant Number mean: 0.700366 max: 0.919189
DILUPBiCG:  Solving for T, Initial residual = 0.0524702, Final residual = 7.14924e-09, No Iterations 4
DILUPBiCG:  Solving for T, Initial residual = 0.00313868, Final residual = 4.23421e-10, No Iterations 4
DILUPBiCG:  Solving for T, Initial residual = 0.000294815, Final residual = 2.13197e-09, No Iterations 3
DILUPBiCG:  Solving for T, Initial residual = 3.45714e-05, Final residual = 2.21922e-10, No Iterations 3
 T goes from min(T) [0 0 0 0 0 0 0] -0.13539 to max(T) [0 0 0 0 0 0 0] 0.749385

ExecutionTime = 17.89 s  ClockTime = 329 s

Time = 2.32
Courant Number mean: 0.698471 max: 0.902442
DILUPBiCG:  Solving for T, Initial residual = 0.0524914, Final residual = 6.86721e-09, No Iterations 4
DILUPBiCG:  Solving for T, Initial residual = 0.00313321, Final residual = 3.97946e-10, No Iterations 4
DILUPBiCG:  Solving for T, Initial residual = 0.000290778, Final residual = 2.01232e-09, No Iterations 3
DILUPBiCG:  Solving for T, Initial residual = 3.3997e-05, Final residual = 2.22445e-10, No Iterations 3
 T goes from min(T) [0 0 0 0 0 0 0] -0.135364 to max(T) [0 0 0 0 0 0 0] 0.749381

ExecutionTime = 18.01 s  ClockTime = 331 s

Time = 2.34
Courant Number mean: 0.69639 max: 0.885906
DILUPBiCG:  Solving for T, Initial residual = 0.0524926, Final residual = 6.61936e-09, No Iterations 4
DILUPBiCG:  Solving for T, Initial residual = 0.00311169, Final residual = 3.69922e-10, No Iterations 4
DILUPBiCG:  Solving for T, Initial residual = 0.000288424, Final residual = 1.95236e-09, No Iterations 3
DILUPBiCG:  Solving for T, Initial residual = 3.32768e-05, Final residual = 2.24549e-10, No Iterations 3
 T goes from min(T) [0 0 0 0 0 0 0] -0.138519 to max(T) [0 0 0 0 0 0 0] 0.740102

ExecutionTime = 18.17 s  ClockTime = 334 s

Time = 2.36
Courant Number mean: 0.694141 max: 0.869874
DILUPBiCG:  Solving for T, Initial residual = 0.0525222, Final residual = 6.36176e-09, No Iterations 4
DILUPBiCG:  Solving for T, Initial residual = 0.00310445, Final residual = 3.42747e-10, No Iterations 4
DILUPBiCG:  Solving for T, Initial residual = 0.000284875, Final residual = 1.846e-09, No Iterations 3
DILUPBiCG:  Solving for T, Initial residual = 3.27556e-05, Final residual = 2.35543e-10, No Iterations 3
 T goes from min(T) [0 0 0 0 0 0 0] -0.138295 to max(T) [0 0 0 0 0 0 0] 0.747982

ExecutionTime = 18.3 s  ClockTime = 336 s

Time = 2.38
Courant Number mean: 0.691742 max: 0.854056
DILUPBiCG:  Solving for T, Initial residual = 0.0523816, Final residual = 6.04366e-09, No Iterations 4
DILUPBiCG:  Solving for T, Initial residual = 0.00308269, Final residual = 3.12699e-10, No Iterations 4
DILUPBiCG:  Solving for T, Initial residual = 0.000281997, Final residual = 1.79995e-09, No Iterations 3
DILUPBiCG:  Solving for T, Initial residual = 3.21504e-05, Final residual = 2.60194e-10, No Iterations 3
 T goes from min(T) [0 0 0 0 0 0 0] -0.139889 to max(T) [0 0 0 0 0 0 0] 0.74549

ExecutionTime = 18.44 s  ClockTime = 338 s

Time = 2.4
Courant Number mean: 0.689215 max: 0.838712
DILUPBiCG:  Solving for T, Initial residual = 0.0524618, Final residual = 5.68777e-09, No Iterations 4
DILUPBiCG:  Solving for T, Initial residual = 0.00307615, Final residual = 2.86218e-10, No Iterations 4
DILUPBiCG:  Solving for T, Initial residual = 0.000279431, Final residual = 1.74372e-09, No Iterations 3
DILUPBiCG:  Solving for T, Initial residual = 3.16632e-05, Final residual = 3.13581e-10, No Iterations 3
 T goes from min(T) [0 0 0 0 0 0 0] -0.142361 to max(T) [0 0 0 0 0 0 0] 0.737752

ExecutionTime = 18.58 s  ClockTime = 341 s

Time = 2.42
Courant Number mean: 0.686579 max: 0.823887
DILUPBiCG:  Solving for T, Initial residual = 0.0524026, Final residual = 5.30582e-09, No Iterations 4
DILUPBiCG:  Solving for T, Initial residual = 0.00305669, Final residual = 2.61045e-10, No Iterations 4
DILUPBiCG:  Solving for T, Initial residual = 0.00027678, Final residual = 1.73136e-09, No Iterations 3
DILUPBiCG:  Solving for T, Initial residual = 3.11199e-05, Final residual = 4.52529e-10, No Iterations 3
 T goes from min(T) [0 0 0 0 0 0 0] -0.141948 to max(T) [0 0 0 0 0 0 0] 0.743712

ExecutionTime = 18.71 s  ClockTime = 343 s

Time = 2.44
Courant Number mean: 0.683856 max: 0.809384
DILUPBiCG:  Solving for T, Initial residual = 0.0524306, Final residual = 4.95228e-09, No Iterations 4
DILUPBiCG:  Solving for T, Initial residual = 0.0030545, Final residual = 2.44484e-10, No Iterations 4
DILUPBiCG:  Solving for T, Initial residual = 0.000274748, Final residual = 1.73355e-09, No Iterations 3
DILUPBiCG:  Solving for T, Initial residual = 3.07179e-05, Final residual = 9.29582e-10, No Iterations 3
 T goes from min(T) [0 0 0 0 0 0 0] -0.144243 to max(T) [0 0 0 0 0 0 0] 0.741328

ExecutionTime = 18.84 s  ClockTime = 345 s

Time = 2.46
Courant Number mean: 0.681067 max: 0.795585
DILUPBiCG:  Solving for T, Initial residual = 0.0523561, Final residual = 4.62908e-09, No Iterations 4
DILUPBiCG:  Solving for T, Initial residual = 0.00302943, Final residual = 2.3036e-10, No Iterations 4
DILUPBiCG:  Solving for T, Initial residual = 0.000271366, Final residual = 1.7308e-09, No Iterations 3
DILUPBiCG:  Solving for T, Initial residual = 3.02378e-05, Final residual = 5.82322e-09, No Iterations 3
 T goes from min(T) [0 0 0 0 0 0 0] -0.142771 to max(T) [0 0 0 0 0 0 0] 0.734628

ExecutionTime = 18.98 s  ClockTime = 347 s

Time = 2.48
Courant Number mean: 0.678234 max: 0.79233
DILUPBiCG:  Solving for T, Initial residual = 0.0523291, Final residual = 4.33345e-09, No Iterations 4
DILUPBiCG:  Solving for T, Initial residual = 0.00301944, Final residual = 2.19018e-10, No Iterations 4
DILUPBiCG:  Solving for T, Initial residual = 0.000269877, Final residual = 1.75318e-09, No Iterations 3
DILUPBiCG:  Solving for T, Initial residual = 2.9882e-05, Final residual = 6.74083e-10, No Iterations 3
 T goes from min(T) [0 0 0 0 0 0 0] -0.147358 to max(T) [0 0 0 0 0 0 0] 0.740333

ExecutionTime = 19.12 s  ClockTime = 350 s

Time = 2.5
Courant Number mean: 0.675379 max: 0.791373
DILUPBiCG:  Solving for T, Initial residual = 0.0522765, Final residual = 4.00958e-09, No Iterations 4
DILUPBiCG:  Solving for T, Initial residual = 0.00300194, Final residual = 2.06509e-10, No Iterations 4
DILUPBiCG:  Solving for T, Initial residual = 0.000267087, Final residual = 1.72366e-09, No Iterations 3
DILUPBiCG:  Solving for T, Initial residual = 2.95048e-05, Final residual = 9.24201e-09, No Iterations 2
 T goes from min(T) [0 0 0 0 0 0 0] -0.147414 to max(T) [0 0 0 0 0 0 0] 0.740244

ExecutionTime = 19.29 s  ClockTime = 352 s

Time = 2.52
Courant Number mean: 0.672523 max: 0.805959
DILUPBiCG:  Solving for T, Initial residual = 0.0522448, Final residual = 3.6848e-09, No Iterations 4
DILUPBiCG:  Solving for T, Initial residual = 0.00298995, Final residual = 1.94138e-10, No Iterations 4
DILUPBiCG:  Solving for T, Initial residual = 0.00026508, Final residual = 1.68295e-09, No Iterations 3
DILUPBiCG:  Solving for T, Initial residual = 2.91439e-05, Final residual = 8.37715e-09, No Iterations 2
 T goes from min(T) [0 0 0 0 0 0 0] -0.149207 to max(T) [0 0 0 0 0 0 0] 0.734608

ExecutionTime = 19.41 s  ClockTime = 354 s

Time = 2.54
Courant Number mean: 0.66969 max: 0.821952
DILUPBiCG:  Solving for T, Initial residual = 0.0521854, Final residual = 3.3553e-09, No Iterations 4
DILUPBiCG:  Solving for T, Initial residual = 0.00297068, Final residual = 1.79677e-10, No Iterations 4
DILUPBiCG:  Solving for T, Initial residual = 0.000262671, Final residual = 1.55747e-09, No Iterations 3
DILUPBiCG:  Solving for T, Initial residual = 2.88243e-05, Final residual = 7.67832e-09, No Iterations 2
 T goes from min(T) [0 0 0 0 0 0 0] -0.148463 to max(T) [0 0 0 0 0 0 0] 0.73588

ExecutionTime = 19.54 s  ClockTime = 356 s

Time = 2.56
Courant Number mean: 0.666901 max: 0.838565
DILUPBiCG:  Solving for T, Initial residual = 0.0520631, Final residual = 3.08654e-09, No Iterations 4
DILUPBiCG:  Solving for T, Initial residual = 0.00295459, Final residual = 1.66495e-10, No Iterations 4
DILUPBiCG:  Solving for T, Initial residual = 0.00026064, Final residual = 1.38801e-09, No Iterations 3
DILUPBiCG:  Solving for T, Initial residual = 2.84694e-05, Final residual = 6.99019e-09, No Iterations 2
 T goes from min(T) [0 0 0 0 0 0 0] -0.14987 to max(T) [0 0 0 0 0 0 0] 0.736712

ExecutionTime = 19.66 s  ClockTime = 358 s

Time = 2.58
Courant Number mean: 0.664178 max: 0.855551
DILUPBiCG:  Solving for T, Initial residual = 0.0520422, Final residual = 2.8758e-09, No Iterations 4
DILUPBiCG:  Solving for T, Initial residual = 0.00294233, Final residual = 1.53683e-10, No Iterations 4
DILUPBiCG:  Solving for T, Initial residual = 0.00025813, Final residual = 1.2046e-09, No Iterations 3
DILUPBiCG:  Solving for T, Initial residual = 2.81894e-05, Final residual = 6.42884e-09, No Iterations 2
 T goes from min(T) [0 0 0 0 0 0 0] -0.152562 to max(T) [0 0 0 0 0 0 0] 0.734542

ExecutionTime = 19.79 s  ClockTime = 360 s

Time = 2.6
Courant Number mean: 0.661542 max: 0.872842
DILUPBiCG:  Solving for T, Initial residual = 0.0519891, Final residual = 2.71163e-09, No Iterations 4
DILUPBiCG:  Solving for T, Initial residual = 0.00292245, Final residual = 1.40256e-10, No Iterations 4
DILUPBiCG:  Solving for T, Initial residual = 0.000256168, Final residual = 1.02692e-09, No Iterations 3
DILUPBiCG:  Solving for T, Initial residual = 2.78625e-05, Final residual = 5.92262e-09, No Iterations 2
 T goes from min(T) [0 0 0 0 0 0 0] -0.151954 to max(T) [0 0 0 0 0 0 0] 0.729449

ExecutionTime = 19.93 s  ClockTime = 363 s

Time = 2.62
Courant Number mean: 0.659015 max: 0.890368
DILUPBiCG:  Solving for T, Initial residual = 0.0519603, Final residual = 2.52695e-09, No Iterations 4
DILUPBiCG:  Solving for T, Initial residual = 0.00290555, Final residual = 1.22718e-10, No Iterations 4
DILUPBiCG:  Solving for T, Initial residual = 0.000253145, Final residual = 8.52535e-10, No Iterations 3
DILUPBiCG:  Solving for T, Initial residual = 2.76441e-05, Final residual = 5.47316e-09, No Iterations 2
 T goes from min(T) [0 0 0 0 0 0 0] -0.154724 to max(T) [0 0 0 0 0 0 0] 0.734742

ExecutionTime = 20.08 s  ClockTime = 365 s

Time = 2.64
Courant Number mean: 0.656616 max: 0.908058
DILUPBiCG:  Solving for T, Initial residual = 0.0518024, Final residual = 2.31455e-09, No Iterations 4
DILUPBiCG:  Solving for T, Initial residual = 0.00288864, Final residual = 9.68982e-11, No Iterations 4
[...]
DILUPBiCG:  Solving for T, Initial residual = 1.38757e-05, Final residual = 7.87821e-09, No Iterations 3
 T goes from min(T) [0 0 0 0 0 0 0] -0.142577 to max(T) [0 0 0 0 0 0 0] 0.617686

ExecutionTime = 38.9 s  ClockTime = 685 s

Time = 5.36
Courant Number mean: 0.74161 max: 2.158
DILUPBiCG:  Solving for T, Initial residual = 0.0249289, Final residual = 9.43789e-09, No Iterations 5
DILUPBiCG:  Solving for T, Initial residual = 0.00117303, Final residual = 6.58071e-09, No Iterations 4
DILUPBiCG:  Solving for T, Initial residual = 0.000103132, Final residual = 2.42001e-10, No Iterations 5
DILUPBiCG:  Solving for T, Initial residual = 1.43804e-05, Final residual = 7.92941e-09, No Iterations 3
 T goes from min(T) [0 0 0 0 0 0 0] -0.141742 to max(T) [0 0 0 0 0 0 0] 0.617603

ExecutionTime = 39.04 s  ClockTime = 688 s

Time = 5.38
Courant Number mean: 0.745437 max: 2.15446
DILUPBiCG:  Solving for T, Initial residual = 0.0250504, Final residual = 1.04493e-09, No Iterations 6
DILUPBiCG:  Solving for T, Initial residual = 0.00120353, Final residual = 6.93313e-09, No Iterations 4
DILUPBiCG:  Solving for T, Initial residual = 0.000107078, Final residual = 9.2733e-09, No Iterations 3
DILUPBiCG:  Solving for T, Initial residual = 1.4982e-05, Final residual = 2.18557e-09, No Iterations 4
 T goes from min(T) [0 0 0 0 0 0 0] -0.139673 to max(T) [0 0 0 0 0 0 0] 0.61758

ExecutionTime = 39.18 s  ClockTime = 690 s

Time = 5.4
Courant Number mean: 0.749271 max: 2.14944
DILUPBiCG:  Solving for T, Initial residual = 0.025184, Final residual = 1.31564e-09, No Iterations 6
DILUPBiCG:  Solving for T, Initial residual = 0.00123421, Final residual = 7.03296e-09, No Iterations 4
DILUPBiCG:  Solving for T, Initial residual = 0.000110534, Final residual = 1.3225e-10, No Iterations 5
DILUPBiCG:  Solving for T, Initial residual = 1.5461e-05, Final residual = 4.92157e-10, No Iterations 4
 T goes from min(T) [0 0 0 0 0 0 0] -0.140935 to max(T) [0 0 0 0 0 0 0] 0.617501

ExecutionTime = 39.33 s  ClockTime = 692 s

Time = 5.42
Courant Number mean: 0.753124 max: 2.14283
DILUPBiCG:  Solving for T, Initial residual = 0.02531, Final residual = 1.771e-09, No Iterations 6
DILUPBiCG:  Solving for T, Initial residual = 0.00126062, Final residual = 7.00924e-09, No Iterations 4
DILUPBiCG:  Solving for T, Initial residual = 0.000114226, Final residual = 1.2568e-10, No Iterations 5
DILUPBiCG:  Solving for T, Initial residual = 1.58233e-05, Final residual = 3.40493e-10, No Iterations 4
 T goes from min(T) [0 0 0 0 0 0 0] -0.141308 to max(T) [0 0 0 0 0 0 0] 0.617252

ExecutionTime = 39.48 s  ClockTime = 695 s

Time = 5.44
Courant Number mean: 0.756929 max: 2.13711
DILUPBiCG:  Solving for T, Initial residual = 0.0254854, Final residual = 2.76919e-09, No Iterations 6
DILUPBiCG:  Solving for T, Initial residual = 0.00129216, Final residual = 6.85483e-09, No Iterations 4
DILUPBiCG:  Solving for T, Initial residual = 0.000116805, Final residual = 1.22303e-10, No Iterations 5
DILUPBiCG:  Solving for T, Initial residual = 1.62944e-05, Final residual = 4.58072e-09, No Iterations 3
 T goes from min(T) [0 0 0 0 0 0 0] -0.139232 to max(T) [0 0 0 0 0 0 0] 0.616335

ExecutionTime = 39.62 s  ClockTime = 697 s

Time = 5.46
Courant Number mean: 0.760746 max: 2.12991
DILUPBiCG:  Solving for T, Initial residual = 0.0256668, Final residual = 5.43559e-09, No Iterations 6
DILUPBiCG:  Solving for T, Initial residual = 0.00131662, Final residual = 6.58475e-09, No Iterations 4
DILUPBiCG:  Solving for T, Initial residual = 0.00012009, Final residual = 1.15784e-10, No Iterations 5
DILUPBiCG:  Solving for T, Initial residual = 1.67297e-05, Final residual = 2.06748e-09, No Iterations 3
 T goes from min(T) [0 0 0 0 0 0 0] -0.139589 to max(T) [0 0 0 0 0 0 0] 0.615911

ExecutionTime = 39.76 s  ClockTime = 700 s

Time = 5.48
Courant Number mean: 0.76452 max: 2.12422
DILUPBiCG:  Solving for T, Initial residual = 0.0258508, Final residual = 4.92923e-11, No Iterations 7
DILUPBiCG:  Solving for T, Initial residual = 0.00134463, Final residual = 6.24987e-09, No Iterations 4
DILUPBiCG:  Solving for T, Initial residual = 0.000123571, Final residual = 9.98719e-11, No Iterations 5
DILUPBiCG:  Solving for T, Initial residual = 1.72185e-05, Final residual = 1.89292e-09, No Iterations 3
 T goes from min(T) [0 0 0 0 0 0 0] -0.13904 to max(T) [0 0 0 0 0 0 0] 0.616614

ExecutionTime = 39.89 s  ClockTime = 702 s

Time = 5.5
Courant Number mean: 0.768306 max: 2.11705
DILUPBiCG:  Solving for T, Initial residual = 0.0260873, Final residual = 4.33756e-09, No Iterations 6
DILUPBiCG:  Solving for T, Initial residual = 0.00137324, Final residual = 5.7398e-09, No Iterations 4
DILUPBiCG:  Solving for T, Initial residual = 0.000127003, Final residual = 2.68758e-09, No Iterations 4
DILUPBiCG:  Solving for T, Initial residual = 1.77029e-05, Final residual = 2.10945e-09, No Iterations 3
 T goes from min(T) [0 0 0 0 0 0 0] -0.137485 to max(T) [0 0 0 0 0 0 0] 0.616306

ExecutionTime = 40.04 s  ClockTime = 704 s

Time = 5.52
Courant Number mean: 0.772025 max: 2.10777
DILUPBiCG:  Solving for T, Initial residual = 0.0262933, Final residual = 5.91209e-09, No Iterations 5
DILUPBiCG:  Solving for T, Initial residual = 0.00139205, Final residual = 4.88931e-09, No Iterations 4
DILUPBiCG:  Solving for T, Initial residual = 0.000129672, Final residual = 1.28775e-09, No Iterations 4
DILUPBiCG:  Solving for T, Initial residual = 1.80941e-05, Final residual = 2.20357e-09, No Iterations 3
 T goes from min(T) [0 0 0 0 0 0 0] -0.137542 to max(T) [0 0 0 0 0 0 0] 0.615307

ExecutionTime = 40.18 s  ClockTime = 707 s

Time = 5.54
Courant Number mean: 0.775751 max: 2.10054
DILUPBiCG:  Solving for T, Initial residual = 0.026561, Final residual = 6.45081e-09, No Iterations 5
DILUPBiCG:  Solving for T, Initial residual = 0.00141808, Final residual = 4.32324e-09, No Iterations 4
DILUPBiCG:  Solving for T, Initial residual = 0.000132229, Final residual = 8.49278e-09, No Iterations 3
DILUPBiCG:  Solving for T, Initial residual = 1.84821e-05, Final residual = 1.97584e-09, No Iterations 3
 T goes from min(T) [0 0 0 0 0 0 0] -0.135606 to max(T) [0 0 0 0 0 0 0] 0.613806

ExecutionTime = 40.33 s  ClockTime = 709 s

Time = 5.56
Courant Number mean: 0.779388 max: 2.09199
DILUPBiCG:  Solving for T, Initial residual = 0.0268227, Final residual = 6.58952e-09, No Iterations 5
DILUPBiCG:  Solving for T, Initial residual = 0.00143548, Final residual = 5.45648e-09, No Iterations 4
DILUPBiCG:  Solving for T, Initial residual = 0.000133648, Final residual = 8.94731e-09, No Iterations 3
DILUPBiCG:  Solving for T, Initial residual = 1.87283e-05, Final residual = 1.54995e-09, No Iterations 3
 T goes from min(T) [0 0 0 0 0 0 0] -0.1374 to max(T) [0 0 0 0 0 0 0] 0.611868

ExecutionTime = 40.46 s  ClockTime = 711 s

Time = 5.58
Courant Number mean: 0.783035 max: 2.08136
DILUPBiCG:  Solving for T, Initial residual = 0.0270848, Final residual = 7.67374e-09, No Iterations 5
DILUPBiCG:  Solving for T, Initial residual = 0.00145109, Final residual = 4.9519e-10, No Iterations 5
DILUPBiCG:  Solving for T, Initial residual = 0.000135461, Final residual = 6.69008e-10, No Iterations 4
DILUPBiCG:  Solving for T, Initial residual = 1.88478e-05, Final residual = 7.23533e-09, No Iterations 3
 T goes from min(T) [0 0 0 0 0 0 0] -0.136708 to max(T) [0 0 0 0 0 0 0] 0.609458

ExecutionTime = 40.59 s  ClockTime = 714 s

Time = 5.6
Courant Number mean: 0.786571 max: 2.07202
DILUPBiCG:  Solving for T, Initial residual = 0.0274279, Final residual = 4.72799e-10, No Iterations 6
DILUPBiCG:  Solving for T, Initial residual = 0.00146398, Final residual = 5.8802e-10, No Iterations 5
DILUPBiCG:  Solving for T, Initial residual = 0.000137328, Final residual = 3.65457e-10, No Iterations 4
DILUPBiCG:  Solving for T, Initial residual = 1.91673e-05, Final residual = 2.29265e-09, No Iterations 3
 T goes from min(T) [0 0 0 0 0 0 0] -0.135204 to max(T) [0 0 0 0 0 0 0] 0.606532

ExecutionTime = 40.73 s  ClockTime = 716 s

Time = 5.62
Courant Number mean: 0.7901 max: 2.06217
DILUPBiCG:  Solving for T, Initial residual = 0.0277129, Final residual = 3.78427e-10, No Iterations 6
DILUPBiCG:  Solving for T, Initial residual = 0.001474, Final residual = 4.24076e-10, No Iterations 5
DILUPBiCG:  Solving for T, Initial residual = 0.000138831, Final residual = 1.2574e-09, No Iterations 4
DILUPBiCG:  Solving for T, Initial residual = 1.95771e-05, Final residual = 4.33697e-09, No Iterations 3
 T goes from min(T) [0 0 0 0 0 0 0] -0.135078 to max(T) [0 0 0 0 0 0 0] 0.603548

ExecutionTime = 40.87 s  ClockTime = 719 s

Time = 5.64
Courant Number mean: 0.793529 max: 2.05207
DILUPBiCG:  Solving for T, Initial residual = 0.0280578, Final residual = 2.69687e-10, No Iterations 6
DILUPBiCG:  Solving for T, Initial residual = 0.00149678, Final residual = 2.49438e-09, No Iterations 5
DILUPBiCG:  Solving for T, Initial residual = 0.000140984, Final residual = 2.46826e-09, No Iterations 4
DILUPBiCG:  Solving for T, Initial residual = 1.98814e-05, Final residual = 1.28991e-09, No Iterations 3
 T goes from min(T) [0 0 0 0 0 0 0] -0.133924 to max(T) [0 0 0 0 0 0 0] 0.600289

ExecutionTime = 41.03 s  ClockTime = 721 s

Time = 5.66
Courant Number mean: 0.796934 max: 2.04146
DILUPBiCG:  Solving for T, Initial residual = 0.0283931, Final residual = 1.68129e-10, No Iterations 6
DILUPBiCG:  Solving for T, Initial residual = 0.00150254, Final residual = 7.99649e-09, No Iterations 4
DILUPBiCG:  Solving for T, Initial residual = 0.000143093, Final residual = 2.29426e-09, No Iterations 4
DILUPBiCG:  Solving for T, Initial residual = 2.03656e-05, Final residual = 2.11174e-09, No Iterations 3
 T goes from min(T) [0 0 0 0 0 0 0] -0.134719 to max(T) [0 0 0 0 0 0 0] 0.597372

ExecutionTime = 41.16 s  ClockTime = 723 s

Time = 5.68
Courant Number mean: 0.800252 max: 2.02887
DILUPBiCG:  Solving for T, Initial residual = 0.0287396, Final residual = 8.97037e-09, No Iterations 5
DILUPBiCG:  Solving for T, Initial residual = 0.00152509, Final residual = 3.80483e-09, No Iterations 4
DILUPBiCG:  Solving for T, Initial residual = 0.000146696, Final residual = 8.71297e-09, No Iterations 3
DILUPBiCG:  Solving for T, Initial residual = 2.12926e-05, Final residual = 1.03566e-09, No Iterations 3
 T goes from min(T) [0 0 0 0 0 0 0] -0.134588 to max(T) [0 0 0 0 0 0 0] 0.598396

ExecutionTime = 41.29 s  ClockTime = 726 s

Time = 5.7
Courant Number mean: 0.803545 max: 2.01858
DILUPBiCG:  Solving for T, Initial residual = 0.0291021, Final residual = 7.07502e-09, No Iterations 5
DILUPBiCG:  Solving for T, Initial residual = 0.00154913, Final residual = 2.89064e-09, No Iterations 4
DILUPBiCG:  Solving for T, Initial residual = 0.000151445, Final residual = 8.2605e-09, No Iterations 3
DILUPBiCG:  Solving for T, Initial residual = 2.23943e-05, Final residual = 1.19546e-09, No Iterations 3
 T goes from min(T) [0 0 0 0 0 0 0] -0.132629 to max(T) [0 0 0 0 0 0 0] 0.595507

ExecutionTime = 41.43 s  ClockTime = 728 s

Time = 5.72
Courant Number mean: 0.806704 max: 2.00675
DILUPBiCG:  Solving for T, Initial residual = 0.0294516, Final residual = 9.54709e-09, No Iterations 5
DILUPBiCG:  Solving for T, Initial residual = 0.00157515, Final residual = 2.60003e-09, No Iterations 4
DILUPBiCG:  Solving for T, Initial residual = 0.00015756, Final residual = 8.52924e-09, No Iterations 3
DILUPBiCG:  Solving for T, Initial residual = 2.38153e-05, Final residual = 1.89982e-09, No Iterations 3
 T goes from min(T) [0 0 0 0 0 0 0] -0.134122 to max(T) [0 0 0 0 0 0 0] 0.594736

ExecutionTime = 41.57 s  ClockTime = 730 s

Time = 5.74
Courant Number mean: 0.809823 max: 1.99297
DILUPBiCG:  Solving for T, Initial residual = 0.0298834, Final residual = 8.18348e-09, No Iterations 5
DILUPBiCG:  Solving for T, Initial residual = 0.00160479, Final residual = 2.51599e-09, No Iterations 4
DILUPBiCG:  Solving for T, Initial residual = 0.000162647, Final residual = 6.10165e-10, No Iterations 4
DILUPBiCG:  Solving for T, Initial residual = 2.51816e-05, Final residual = 1.53988e-09, No Iterations 3
 T goes from min(T) [0 0 0 0 0 0 0] -0.133228 to max(T) [0 0 0 0 0 0 0] 0.597499

ExecutionTime = 41.71 s  ClockTime = 732 s

Time = 5.76
Courant Number mean: 0.812844 max: 1.9809
DILUPBiCG:  Solving for T, Initial residual = 0.0302521, Final residual = 2.75974e-09, No Iterations 5
DILUPBiCG:  Solving for T, Initial residual = 0.00162803, Final residual = 2.59209e-09, No Iterations 4
DILUPBiCG:  Solving for T, Initial residual = 0.000168207, Final residual = 9.81896e-09, No Iterations 3
DILUPBiCG:  Solving for T, Initial residual = 2.66289e-05, Final residual = 1.82687e-09, No Iterations 3
 T goes from min(T) [0 0 0 0 0 0 0] -0.132529 to max(T) [0 0 0 0 0 0 0] 0.598575

ExecutionTime = 41.84 s  ClockTime = 734 s

Time = 5.78
Courant Number mean: 0.81582 max: 1.96795
DILUPBiCG:  Solving for T, Initial residual = 0.030616, Final residual = 2.55922e-09, No Iterations 5
DILUPBiCG:  Solving for T, Initial residual = 0.00165953, Final residual = 1.19769e-09, No Iterations 5
DILUPBiCG:  Solving for T, Initial residual = 0.000175747, Final residual = 9.35246e-09, No Iterations 3
DILUPBiCG:  Solving for T, Initial residual = 2.80014e-05, Final residual = 2.11935e-09, No Iterations 3
 T goes from min(T) [0 0 0 0 0 0 0] -0.133564 to max(T) [0 0 0 0 0 0 0] 0.598746

ExecutionTime = 41.97 s  ClockTime = 736 s

Time = 5.8
Courant Number mean: 0.818658 max: 1.95351
DILUPBiCG:  Solving for T, Initial residual = 0.0310664, Final residual = 2.61132e-09, No Iterations 5
DILUPBiCG:  Solving for T, Initial residual = 0.00169117, Final residual = 5.63864e-10, No Iterations 5
DILUPBiCG:  Solving for T, Initial residual = 0.000183618, Final residual = 9.68766e-09, No Iterations 3
DILUPBiCG:  Solving for T, Initial residual = 2.98839e-05, Final residual = 2.37073e-09, No Iterations 3
 T goes from min(T) [0 0 0 0 0 0 0] -0.131383 to max(T) [0 0 0 0 0 0 0] 0.598467

ExecutionTime = 42.12 s  ClockTime = 739 s

Time = 5.82
Courant Number mean: 0.821462 max: 1.93982
DILUPBiCG:  Solving for T, Initial residual = 0.0314255, Final residual = 2.86831e-09, No Iterations 5
DILUPBiCG:  Solving for T, Initial residual = 0.00173591, Final residual = 6.17217e-09, No Iterations 4
DILUPBiCG:  Solving for T, Initial residual = 0.000190726, Final residual = 5.46411e-10, No Iterations 4
DILUPBiCG:  Solving for T, Initial residual = 3.17394e-05, Final residual = 2.50974e-09, No Iterations 3
 T goes from min(T) [0 0 0 0 0 0 0] -0.133228 to max(T) [0 0 0 0 0 0 0] 0.596833

ExecutionTime = 42.26 s  ClockTime = 741 s

Time = 5.84
Courant Number mean: 0.82412 max: 1.92542
DILUPBiCG:  Solving for T, Initial residual = 0.0318336, Final residual = 3.24598e-09, No Iterations 5
DILUPBiCG:  Solving for T, Initial residual = 0.00177215, Final residual = 4.2713e-09, No Iterations 4
DILUPBiCG:  Solving for T, Initial residual = 0.000199587, Final residual = 5.65001e-10, No Iterations 4
DILUPBiCG:  Solving for T, Initial residual = 3.33285e-05, Final residual = 2.88878e-09, No Iterations 3
 T goes from min(T) [0 0 0 0 0 0 0] -0.131845 to max(T) [0 0 0 0 0 0 0] 0.599991

ExecutionTime = 42.4 s  ClockTime = 743 s

Time = 5.86
Courant Number mean: 0.826707 max: 1.91177
DILUPBiCG:  Solving for T, Initial residual = 0.0322393, Final residual = 4.11284e-09, No Iterations 5
DILUPBiCG:  Solving for T, Initial residual = 0.00180493, Final residual = 4.59617e-09, No Iterations 4
DILUPBiCG:  Solving for T, Initial residual = 0.000205393, Final residual = 9.87171e-09, No Iterations 3
DILUPBiCG:  Solving for T, Initial residual = 3.44796e-05, Final residual = 3.47787e-09, No Iterations 3
 T goes from min(T) [0 0 0 0 0 0 0] -0.13147 to max(T) [0 0 0 0 0 0 0] 0.597783

ExecutionTime = 42.53 s  ClockTime = 745 s

Time = 5.88
Courant Number mean: 0.829151 max: 1.89706
DILUPBiCG:  Solving for T, Initial residual = 0.0325998, Final residual = 1.70985e-10, No Iterations 6
DILUPBiCG:  Solving for T, Initial residual = 0.00183119, Final residual = 4.54991e-09, No Iterations 4
DILUPBiCG:  Solving for T, Initial residual = 0.000210758, Final residual = 8.86441e-09, No Iterations 3
DILUPBiCG:  Solving for T, Initial residual = 3.54572e-05, Final residual = 3.00956e-09, No Iterations 3
 T goes from min(T) [0 0 0 0 0 0 0] -0.132861 to max(T) [0 0 0 0 0 0 0] 0.60191

ExecutionTime = 42.67 s  ClockTime = 748 s

Time = 5.9
Courant Number mean: 0.831537 max: 1.8806
DILUPBiCG:  Solving for T, Initial residual = 0.0329597, Final residual = 8.70354e-09, No Iterations 5
DILUPBiCG:  Solving for T, Initial residual = 0.00186858, Final residual = 9.41113e-10, No Iterations 5
DILUPBiCG:  Solving for T, Initial residual = 0.000216096, Final residual = 8.00106e-09, No Iterations 3
DILUPBiCG:  Solving for T, Initial residual = 3.61788e-05, Final residual = 1.95769e-09, No Iterations 3
 T goes from min(T) [0 0 0 0 0 0 0] -0.130683 to max(T) [0 0 0 0 0 0 0] 0.594782

ExecutionTime = 42.8 s  ClockTime = 750 s

Time = 5.92
Courant Number mean: 0.833746 max: 1.86661
DILUPBiCG:  Solving for T, Initial residual = 0.0333084, Final residual = 4.72373e-09, No Iterations 5
DILUPBiCG:  Solving for T, Initial residual = 0.00189831, Final residual = 3.60235e-10, No Iterations 5
DILUPBiCG:  Solving for T, Initial residual = 0.00021777, Final residual = 8.24848e-09, No Iterations 3
DILUPBiCG:  Solving for T, Initial residual = 3.63668e-05, Final residual = 1.35543e-09, No Iterations 3
 T goes from min(T) [0 0 0 0 0 0 0] -0.130464 to max(T) [0 0 0 0 0 0 0] 0.596987

ExecutionTime = 42.94 s  ClockTime = 752 s

Time = 5.94
Courant Number mean: 0.835857 max: 1.85102
DILUPBiCG:  Solving for T, Initial residual = 0.0336588, Final residual = 4.24234e-09, No Iterations 5
DILUPBiCG:  Solving for T, Initial residual = 0.00192286, Final residual = 3.32986e-10, No Iterations 5
DILUPBiCG:  Solving for T, Initial residual = 0.000220597, Final residual = 8.16215e-09, No Iterations 3
DILUPBiCG:  Solving for T, Initial residual = 3.64798e-05, Final residual = 2.31995e-09, No Iterations 3
 T goes from min(T) [0 0 0 0 0 0 0] -0.132195 to max(T) [0 0 0 0 0 0 0] 0.595674

ExecutionTime = 43.07 s  ClockTime = 754 s

Time = 5.96
Courant Number mean: 0.837814 max: 1.83374
DILUPBiCG:  Solving for T, Initial residual = 0.0340648, Final residual = 4.51116e-09, No Iterations 5
DILUPBiCG:  Solving for T, Initial residual = 0.00194669, Final residual = 3.08249e-10, No Iterations 5
DILUPBiCG:  Solving for T, Initial residual = 0.000222363, Final residual = 8.29394e-09, No Iterations 4
DILUPBiCG:  Solving for T, Initial residual = 3.62143e-05, Final residual = 2.5268e-10, No Iterations 4
 T goes from min(T) [0 0 0 0 0 0 0] -0.131854 to max(T) [0 0 0 0 0 0 0] 0.595501

ExecutionTime = 43.21 s  ClockTime = 756 s

Time = 5.98
Courant Number mean: 0.839634 max: 1.81845
DILUPBiCG:  Solving for T, Initial residual = 0.0343553, Final residual = 5.55729e-09, No Iterations 5
DILUPBiCG:  Solving for T, Initial residual = 0.00197108, Final residual = 2.71045e-10, No Iterations 5
DILUPBiCG:  Solving for T, Initial residual = 0.000221086, Final residual = 1.40595e-09, No Iterations 4
DILUPBiCG:  Solving for T, Initial residual = 3.58604e-05, Final residual = 5.00716e-09, No Iterations 3
 T goes from min(T) [0 0 0 0 0 0 0] -0.129857 to max(T) [0 0 0 0 0 0 0] 0.595772

ExecutionTime = 43.34 s  ClockTime = 758 s

Time = 6
Courant Number mean: 0.841268 max: 1.8021
DILUPBiCG:  Solving for T, Initial residual = 0.0346474, Final residual = 9.83131e-09, No Iterations 5
DILUPBiCG:  Solving for T, Initial residual = 0.00198926, Final residual = 2.4001e-10, No Iterations 5
DILUPBiCG:  Solving for T, Initial residual = 0.000223106, Final residual = 8.2146e-10, No Iterations 4
DILUPBiCG:  Solving for T, Initial residual = 3.54539e-05, Final residual = 4.78052e-09, No Iterations 3
 T goes from min(T) [0 0 0 0 0 0 0] -0.130392 to max(T) [0 0 0 0 0 0 0] 0.595596

ExecutionTime = 43.47 s  ClockTime = 761 s

End

