/*---------------------------------------------------------------------------*\
| =========                 |                                                 |
| \\      /  F ield         | OpenFOAM: The Open Source CFD Toolbox           |
|  \\    /   O peration     | Version:  dev                                   |
|   \\  /    A nd           | Web:      www.OpenFOAM.org                      |
|    \\/     M anipulation  |                                                 |
\*---------------------------------------------------------------------------*/
Build  : dev-90f39e0d894d
Exec   : scalarDeformationWithGhosts explicit -case nonOrthogW/120x60/c10_explicit
Date   : May 23 2017
Time   : 20:31:41
Host   : "sws02hw.private.rdg.ac.uk"
PID    : 22959
Case   : nonOrthogW/120x60/c10_explicit
nProcs : 1
sigFpe : Enabling floating point exception trapping (FOAM_SIGFPE).
fileModificationChecking : Monitoring run-time modified files using timeStampMaster (fileModificationSkew 10)
allowSystemOperations : Allowing user-supplied system call operations

// * * * * * * * * * * * * * * * * * * * * * * * * * * * * * * * * * * * * * //
Create time

Create mesh for time = 0

Reading field T

Reading fields phi (compulsory), U and Uf (optional)

Calculating owner stencils
Calculating neighbour stencils

Calculating scalar transport

Courant Number mean: 4.66051 max: 9.65781
Time = 0.1
Courant Number mean: 4.63323 max: 9.89875
diagonal:  Solving for T, Initial residual = 0, Final residual = 0, No Iterations 0
diagonal:  Solving for T, Initial residual = 0, Final residual = 0, No Iterations 0
diagonal:  Solving for T, Initial residual = 0, Final residual = 0, No Iterations 0
diagonal:  Solving for T, Initial residual = 0, Final residual = 0, No Iterations 0
 T goes from min(T) [0 0 0 0 0 0 0] -0.0388298 to max(T) [0 0 0 0 0 0 0] 0.981459

ExecutionTime = 2.19 s  ClockTime = 46 s

Time = 0.2
Courant Number mean: 4.55401 max: 10.0852
diagonal:  Solving for T, Initial residual = 0, Final residual = 0, No Iterations 0
diagonal:  Solving for T, Initial residual = 0, Final residual = 0, No Iterations 0
diagonal:  Solving for T, Initial residual = 0, Final residual = 0, No Iterations 0
diagonal:  Solving for T, Initial residual = 0, Final residual = 0, No Iterations 0
 T goes from min(T) [0 0 0 0 0 0 0] -8.00872 to max(T) [0 0 0 0 0 0 0] 8.9098

ExecutionTime = 2.33 s  ClockTime = 49 s

Time = 0.3
Courant Number mean: 4.44076 max: 10.2311
diagonal:  Solving for T, Initial residual = 0, Final residual = 0, No Iterations 0
diagonal:  Solving for T, Initial residual = 0, Final residual = 0, No Iterations 0
diagonal:  Solving for T, Initial residual = 0, Final residual = 0, No Iterations 0
diagonal:  Solving for T, Initial residual = 0, Final residual = 0, No Iterations 0
 T goes from min(T) [0 0 0 0 0 0 0] -27812.4 to max(T) [0 0 0 0 0 0 0] 30991.2

ExecutionTime = 2.46 s  ClockTime = 52 s

Time = 0.4
Courant Number mean: 4.30648 max: 10.3181
diagonal:  Solving for T, Initial residual = 0, Final residual = 0, No Iterations 0
diagonal:  Solving for T, Initial residual = 0, Final residual = 0, No Iterations 0
diagonal:  Solving for T, Initial residual = 0, Final residual = 0, No Iterations 0
diagonal:  Solving for T, Initial residual = 0, Final residual = 0, No Iterations 0
 T goes from min(T) [0 0 0 0 0 0 0] -1.23109e+08 to max(T) [0 0 0 0 0 0 0] 1.40122e+08

ExecutionTime = 2.59 s  ClockTime = 55 s

Time = 0.5
Courant Number mean: 4.15666 max: 10.3441
diagonal:  Solving for T, Initial residual = 0, Final residual = 0, No Iterations 0
diagonal:  Solving for T, Initial residual = 0, Final residual = 0, No Iterations 0
diagonal:  Solving for T, Initial residual = 0, Final residual = 0, No Iterations 0
diagonal:  Solving for T, Initial residual = 0, Final residual = 0, No Iterations 0
 T goes from min(T) [0 0 0 0 0 0 0] -6.38188e+11 to max(T) [0 0 0 0 0 0 0] 5.93824e+11

ExecutionTime = 2.72 s  ClockTime = 58 s

Time = 0.6
Courant Number mean: 3.99605 max: 10.3186
diagonal:  Solving for T, Initial residual = 0, Final residual = 0, No Iterations 0
diagonal:  Solving for T, Initial residual = 0, Final residual = 0, No Iterations 0
diagonal:  Solving for T, Initial residual = 0, Final residual = 0, No Iterations 0
diagonal:  Solving for T, Initial residual = 0, Final residual = 0, No Iterations 0
 T goes from min(T) [0 0 0 0 0 0 0] -2.68254e+15 to max(T) [0 0 0 0 0 0 0] 2.26153e+15

ExecutionTime = 2.84 s  ClockTime = 60 s

Time = 0.7
Courant Number mean: 3.82882 max: 10.2299
diagonal:  Solving for T, Initial residual = 0, Final residual = 0, No Iterations 0
diagonal:  Solving for T, Initial residual = 0, Final residual = 0, No Iterations 0
diagonal:  Solving for T, Initial residual = 0, Final residual = 0, No Iterations 0
diagonal:  Solving for T, Initial residual = 0, Final residual = 0, No Iterations 0
 T goes from min(T) [0 0 0 0 0 0 0] -1.01489e+19 to max(T) [0 0 0 0 0 0 0] 1.02696e+19

ExecutionTime = 2.97 s  ClockTime = 63 s

Time = 0.8
Courant Number mean: 3.65875 max: 10.0761
diagonal:  Solving for T, Initial residual = 0, Final residual = 0, No Iterations 0
diagonal:  Solving for T, Initial residual = 0, Final residual = 0, No Iterations 0
diagonal:  Solving for T, Initial residual = 0, Final residual = 0, No Iterations 0
diagonal:  Solving for T, Initial residual = 0, Final residual = 0, No Iterations 0
 T goes from min(T) [0 0 0 0 0 0 0] -4.33362e+22 to max(T) [0 0 0 0 0 0 0] 4.63939e+22

ExecutionTime = 3.1 s  ClockTime = 66 s

Time = 0.9
Courant Number mean: 3.49086 max: 9.87777
diagonal:  Solving for T, Initial residual = 0, Final residual = 0, No Iterations 0
diagonal:  Solving for T, Initial residual = 0, Final residual = 0, No Iterations 0
diagonal:  Solving for T, Initial residual = 0, Final residual = 0, No Iterations 0
diagonal:  Solving for T, Initial residual = 0, Final residual = 0, No Iterations 0
 T goes from min(T) [0 0 0 0 0 0 0] -1.54902e+26 to max(T) [0 0 0 0 0 0 0] 1.73531e+26

ExecutionTime = 3.22 s  ClockTime = 68 s

Time = 1
Courant Number mean: 3.33235 max: 9.61896
diagonal:  Solving for T, Initial residual = 0, Final residual = 0, No Iterations 0
diagonal:  Solving for T, Initial residual = 0, Final residual = 0, No Iterations 0
diagonal:  Solving for T, Initial residual = 0, Final residual = 0, No Iterations 0
diagonal:  Solving for T, Initial residual = 0, Final residual = 0, No Iterations 0
 T goes from min(T) [0 0 0 0 0 0 0] -4.45544e+29 to max(T) [0 0 0 0 0 0 0] 4.91638e+29

ExecutionTime = 3.36 s  ClockTime = 71 s

Time = 1.1
Courant Number mean: 3.1966 max: 9.19826
diagonal:  Solving for T, Initial residual = 0, Final residual = 0, No Iterations 0
diagonal:  Solving for T, Initial residual = 0, Final residual = 0, No Iterations 0
diagonal:  Solving for T, Initial residual = 0, Final residual = 0, No Iterations 0
diagonal:  Solving for T, Initial residual = 0, Final residual = 0, No Iterations 0
 T goes from min(T) [0 0 0 0 0 0 0] -9.15465e+32 to max(T) [0 0 0 0 0 0 0] 8.55477e+32

ExecutionTime = 3.49 s  ClockTime = 74 s

Time = 1.2
Courant Number mean: 3.10527 max: 8.62485
diagonal:  Solving for T, Initial residual = 0, Final residual = 0, No Iterations 0
diagonal:  Solving for T, Initial residual = 0, Final residual = 0, No Iterations 0
diagonal:  Solving for T, Initial residual = 0, Final residual = 0, No Iterations 0
diagonal:  Solving for T, Initial residual = 0, Final residual = 0, No Iterations 0
 T goes from min(T) [0 0 0 0 0 0 0] -1.03404e+36 to max(T) [0 0 0 0 0 0 0] 9.51381e+35

ExecutionTime = 3.62 s  ClockTime = 76 s

Time = 1.3
Courant Number mean: 3.06247 max: 8.33963
diagonal:  Solving for T, Initial residual = 0, Final residual = 0, No Iterations 0
diagonal:  Solving for T, Initial residual = 0, Final residual = 0, No Iterations 0
diagonal:  Solving for T, Initial residual = 0, Final residual = 0, No Iterations 0
diagonal:  Solving for T, Initial residual = 0, Final residual = 0, No Iterations 0
 T goes from min(T) [0 0 0 0 0 0 0] -7.13766e+38 to max(T) [0 0 0 0 0 0 0] 7.28797e+38

ExecutionTime = 3.74 s  ClockTime = 79 s

Time = 1.4
Courant Number mean: 3.06624 max: 8.28902
diagonal:  Solving for T, Initial residual = 0, Final residual = 0, No Iterations 0
diagonal:  Solving for T, Initial residual = 0, Final residual = 0, No Iterations 0
diagonal:  Solving for T, Initial residual = 0, Final residual = 0, No Iterations 0
diagonal:  Solving for T, Initial residual = 0, Final residual = 0, No Iterations 0
 T goes from min(T) [0 0 0 0 0 0 0] -2.7209e+41 to max(T) [0 0 0 0 0 0 0] 3.22181e+41

ExecutionTime = 3.88 s  ClockTime = 82 s

Time = 1.5
Courant Number mean: 3.10666 max: 8.06444
diagonal:  Solving for T, Initial residual = 0, Final residual = 0, No Iterations 0
diagonal:  Solving for T, Initial residual = 0, Final residual = 0, No Iterations 0
diagonal:  Solving for T, Initial residual = 0, Final residual = 0, No Iterations 0
diagonal:  Solving for T, Initial residual = 0, Final residual = 0, No Iterations 0
 T goes from min(T) [0 0 0 0 0 0 0] -7.59374e+43 to max(T) [0 0 0 0 0 0 0] 5.62491e+43

ExecutionTime = 4.01 s  ClockTime = 85 s

Time = 1.6
Courant Number mean: 3.16878 max: 7.70234
diagonal:  Solving for T, Initial residual = 0, Final residual = 0, No Iterations 0
diagonal:  Solving for T, Initial residual = 0, Final residual = 0, No Iterations 0
diagonal:  Solving for T, Initial residual = 0, Final residual = 0, No Iterations 0
diagonal:  Solving for T, Initial residual = 0, Final residual = 0, No Iterations 0
 T goes from min(T) [0 0 0 0 0 0 0] -8.87032e+45 to max(T) [0 0 0 0 0 0 0] 9.16073e+45

ExecutionTime = 4.17 s  ClockTime = 88 s

Time = 1.7
Courant Number mean: 3.24211 max: 7.29922
diagonal:  Solving for T, Initial residual = 0, Final residual = 0, No Iterations 0
diagonal:  Solving for T, Initial residual = 0, Final residual = 0, No Iterations 0
diagonal:  Solving for T, Initial residual = 0, Final residual = 0, No Iterations 0
diagonal:  Solving for T, Initial residual = 0, Final residual = 0, No Iterations 0
 T goes from min(T) [0 0 0 0 0 0 0] -1.25554e+48 to max(T) [0 0 0 0 0 0 0] 1.12948e+48

ExecutionTime = 4.31 s  ClockTime = 90 s

Time = 1.8
Courant Number mean: 3.32265 max: 6.87189
diagonal:  Solving for T, Initial residual = 0, Final residual = 0, No Iterations 0
diagonal:  Solving for T, Initial residual = 0, Final residual = 0, No Iterations 0
diagonal:  Solving for T, Initial residual = 0, Final residual = 0, No Iterations 0
diagonal:  Solving for T, Initial residual = 0, Final residual = 0, No Iterations 0
 T goes from min(T) [0 0 0 0 0 0 0] -1.24196e+51 to max(T) [0 0 0 0 0 0 0] 1.34202e+51

ExecutionTime = 4.43 s  ClockTime = 93 s

Time = 1.9
Courant Number mean: 3.4075 max: 6.42061
diagonal:  Solving for T, Initial residual = 0, Final residual = 0, No Iterations 0
diagonal:  Solving for T, Initial residual = 0, Final residual = 0, No Iterations 0
diagonal:  Solving for T, Initial residual = 0, Final residual = 0, No Iterations 0
diagonal:  Solving for T, Initial residual = 0, Final residual = 0, No Iterations 0
 T goes from min(T) [0 0 0 0 0 0 0] -9.6865e+53 to max(T) [0 0 0 0 0 0 0] 1.10599e+54

ExecutionTime = 4.56 s  ClockTime = 95 s

Time = 2
Courant Number mean: 3.48552 max: 5.9586
diagonal:  Solving for T, Initial residual = 0, Final residual = 0, No Iterations 0
diagonal:  Solving for T, Initial residual = 0, Final residual = 0, No Iterations 0
diagonal:  Solving for T, Initial residual = 0, Final residual = 0, No Iterations 0
diagonal:  Solving for T, Initial residual = 0, Final residual = 0, No Iterations 0
 T goes from min(T) [0 0 0 0 0 0 0] -5.74357e+56 to max(T) [0 0 0 0 0 0 0] 5.74018e+56

ExecutionTime = 4.69 s  ClockTime = 98 s

Time = 2.1
Courant Number mean: 3.52847 max: 5.4925
diagonal:  Solving for T, Initial residual = 0, Final residual = 0, No Iterations 0
diagonal:  Solving for T, Initial residual = 0, Final residual = 0, No Iterations 0
diagonal:  Solving for T, Initial residual = 0, Final residual = 0, No Iterations 0
diagonal:  Solving for T, Initial residual = 0, Final residual = 0, No Iterations 0
 T goes from min(T) [0 0 0 0 0 0 0] -2.81501e+59 to max(T) [0 0 0 0 0 0 0] 2.49876e+59

ExecutionTime = 4.82 s  ClockTime = 100 s

Time = 2.2
Courant Number mean: 3.53227 max: 5.03591
diagonal:  Solving for T, Initial residual = 0, Final residual = 0, No Iterations 0
diagonal:  Solving for T, Initial residual = 0, Final residual = 0, No Iterations 0
diagonal:  Solving for T, Initial residual = 0, Final residual = 0, No Iterations 0
diagonal:  Solving for T, Initial residual = 0, Final residual = 0, No Iterations 0
 T goes from min(T) [0 0 0 0 0 0 0] -8.16907e+61 to max(T) [0 0 0 0 0 0 0] 7.43677e+61

ExecutionTime = 4.95 s  ClockTime = 103 s

Time = 2.3
Courant Number mean: 3.50183 max: 4.59595
diagonal:  Solving for T, Initial residual = 0, Final residual = 0, No Iterations 0
diagonal:  Solving for T, Initial residual = 0, Final residual = 0, No Iterations 0
diagonal:  Solving for T, Initial residual = 0, Final residual = 0, No Iterations 0
diagonal:  Solving for T, Initial residual = 0, Final residual = 0, No Iterations 0
 T goes from min(T) [0 0 0 0 0 0 0] -1.41785e+64 to max(T) [0 0 0 0 0 0 0] 1.35094e+64

ExecutionTime = 5.08 s  ClockTime = 106 s

Time = 2.4
Courant Number mean: 3.44608 max: 4.19356
diagonal:  Solving for T, Initial residual = 0, Final residual = 0, No Iterations 0
diagonal:  Solving for T, Initial residual = 0, Final residual = 0, No Iterations 0
diagonal:  Solving for T, Initial residual = 0, Final residual = 0, No Iterations 0
diagonal:  Solving for T, Initial residual = 0, Final residual = 0, No Iterations 0
 T goes from min(T) [0 0 0 0 0 0 0] -1.99003e+66 to max(T) [0 0 0 0 0 0 0] 1.90349e+66

ExecutionTime = 5.23 s  ClockTime = 109 s

Time = 2.5
Courant Number mean: 3.37689 max: 3.95686
diagonal:  Solving for T, Initial residual = 0, Final residual = 0, No Iterations 0
diagonal:  Solving for T, Initial residual = 0, Final residual = 0, No Iterations 0
diagonal:  Solving for T, Initial residual = 0, Final residual = 0, No Iterations 0
diagonal:  Solving for T, Initial residual = 0, Final residual = 0, No Iterations 0
 T goes from min(T) [0 0 0 0 0 0 0] -1.63169e+68 to max(T) [0 0 0 0 0 0 0] 1.55576e+68

ExecutionTime = 5.39 s  ClockTime = 112 s

Time = 2.6
Courant Number mean: 3.30771 max: 4.36421
diagonal:  Solving for T, Initial residual = 0, Final residual = 0, No Iterations 0
diagonal:  Solving for T, Initial residual = 0, Final residual = 0, No Iterations 0
diagonal:  Solving for T, Initial residual = 0, Final residual = 0, No Iterations 0
diagonal:  Solving for T, Initial residual = 0, Final residual = 0, No Iterations 0
 T goes from min(T) [0 0 0 0 0 0 0] -7.9439e+69 to max(T) [0 0 0 0 0 0 0] 8.0631e+69

ExecutionTime = 5.52 s  ClockTime = 115 s

Time = 2.7
Courant Number mean: 3.25196 max: 4.81196
diagonal:  Solving for T, Initial residual = 0, Final residual = 0, No Iterations 0
diagonal:  Solving for T, Initial residual = 0, Final residual = 0, No Iterations 0
diagonal:  Solving for T, Initial residual = 0, Final residual = 0, No Iterations 0
diagonal:  Solving for T, Initial residual = 0, Final residual = 0, No Iterations 0
 T goes from min(T) [0 0 0 0 0 0 0] -2.64845e+71 to max(T) [0 0 0 0 0 0 0] 2.68282e+71

ExecutionTime = 5.64 s  ClockTime = 118 s

Time = 2.8
Courant Number mean: 3.22151 max: 5.25199
diagonal:  Solving for T, Initial residual = 0, Final residual = 0, No Iterations 0
diagonal:  Solving for T, Initial residual = 0, Final residual = 0, No Iterations 0
diagonal:  Solving for T, Initial residual = 0, Final residual = 0, No Iterations 0
diagonal:  Solving for T, Initial residual = 0, Final residual = 0, No Iterations 0
 T goes from min(T) [0 0 0 0 0 0 0] -7.71302e+72 to max(T) [0 0 0 0 0 0 0] 8.07308e+72

ExecutionTime = 5.79 s  ClockTime = 121 s

Time = 2.9
Courant Number mean: 3.22531 max: 5.66847
diagonal:  Solving for T, Initial residual = 0, Final residual = 0, No Iterations 0
diagonal:  Solving for T, Initial residual = 0, Final residual = 0, No Iterations 0
diagonal:  Solving for T, Initial residual = 0, Final residual = 0, No Iterations 0
diagonal:  Solving for T, Initial residual = 0, Final residual = 0, No Iterations 0
 T goes from min(T) [0 0 0 0 0 0 0] -2.90224e+74 to max(T) [0 0 0 0 0 0 0] 2.78742e+74

ExecutionTime = 5.92 s  ClockTime = 125 s

Time = 3
Courant Number mean: 3.26847 max: 6.07062
diagonal:  Solving for T, Initial residual = 0, Final residual = 0, No Iterations 0
diagonal:  Solving for T, Initial residual = 0, Final residual = 0, No Iterations 0
diagonal:  Solving for T, Initial residual = 0, Final residual = 0, No Iterations 0
diagonal:  Solving for T, Initial residual = 0, Final residual = 0, No Iterations 0
 T goes from min(T) [0 0 0 0 0 0 0] -1.72339e+76 to max(T) [0 0 0 0 0 0 0] 1.79644e+76

ExecutionTime = 6.08 s  ClockTime = 130 s

Time = 3.1
Courant Number mean: 3.3568 max: 6.44403
diagonal:  Solving for T, Initial residual = 0, Final residual = 0, No Iterations 0
diagonal:  Solving for T, Initial residual = 0, Final residual = 0, No Iterations 0
diagonal:  Solving for T, Initial residual = 0, Final residual = 0, No Iterations 0
diagonal:  Solving for T, Initial residual = 0, Final residual = 0, No Iterations 0
 T goes from min(T) [0 0 0 0 0 0 0] -1.47596e+78 to max(T) [0 0 0 0 0 0 0] 1.35406e+78

ExecutionTime = 6.21 s  ClockTime = 133 s

Time = 3.2
Courant Number mean: 3.48491 max: 6.78832
diagonal:  Solving for T, Initial residual = 0, Final residual = 0, No Iterations 0
diagonal:  Solving for T, Initial residual = 0, Final residual = 0, No Iterations 0
diagonal:  Solving for T, Initial residual = 0, Final residual = 0, No Iterations 0
diagonal:  Solving for T, Initial residual = 0, Final residual = 0, No Iterations 0
 T goes from min(T) [0 0 0 0 0 0 0] -2.35887e+80 to max(T) [0 0 0 0 0 0 0] 2.33912e+80

ExecutionTime = 6.37 s  ClockTime = 137 s

Time = 3.3
Courant Number mean: 3.63091 max: 7.09677
diagonal:  Solving for T, Initial residual = 0, Final residual = 0, No Iterations 0
diagonal:  Solving for T, Initial residual = 0, Final residual = 0, No Iterations 0
diagonal:  Solving for T, Initial residual = 0, Final residual = 0, No Iterations 0
diagonal:  Solving for T, Initial residual = 0, Final residual = 0, No Iterations 0
 T goes from min(T) [0 0 0 0 0 0 0] -1.87257e+83 to max(T) [0 0 0 0 0 0 0] 2.01163e+83

ExecutionTime = 6.5 s  ClockTime = 139 s

Time = 3.4
Courant Number mean: 3.78209 max: 7.3592
diagonal:  Solving for T, Initial residual = 0, Final residual = 0, No Iterations 0
diagonal:  Solving for T, Initial residual = 0, Final residual = 0, No Iterations 0
diagonal:  Solving for T, Initial residual = 0, Final residual = 0, No Iterations 0
diagonal:  Solving for T, Initial residual = 0, Final residual = 0, No Iterations 0
 T goes from min(T) [0 0 0 0 0 0 0] -2.37613e+86 to max(T) [0 0 0 0 0 0 0] 2.20164e+86

ExecutionTime = 6.63 s  ClockTime = 142 s

Time = 3.5
Courant Number mean: 3.92838 max: 7.57933
diagonal:  Solving for T, Initial residual = 0, Final residual = 0, No Iterations 0
diagonal:  Solving for T, Initial residual = 0, Final residual = 0, No Iterations 0
diagonal:  Solving for T, Initial residual = 0, Final residual = 0, No Iterations 0
diagonal:  Solving for T, Initial residual = 0, Final residual = 0, No Iterations 0
 T goes from min(T) [0 0 0 0 0 0 0] -3.07298e+89 to max(T) [0 0 0 0 0 0 0] 2.91554e+89

ExecutionTime = 6.76 s  ClockTime = 145 s

Time = 3.6
Courant Number mean: 4.05614 max: 7.74354
diagonal:  Solving for T, Initial residual = 0, Final residual = 0, No Iterations 0
diagonal:  Solving for T, Initial residual = 0, Final residual = 0, No Iterations 0
diagonal:  Solving for T, Initial residual = 0, Final residual = 0, No Iterations 0
diagonal:  Solving for T, Initial residual = 0, Final residual = 0, No Iterations 0
 T goes from min(T) [0 0 0 0 0 0 0] -4.22308e+92 to max(T) [0 0 0 0 0 0 0] 5.05724e+92

ExecutionTime = 6.9 s  ClockTime = 148 s

Time = 3.7
Courant Number mean: 4.15461 max: 7.86524
diagonal:  Solving for T, Initial residual = 0, Final residual = 0, No Iterations 0
diagonal:  Solving for T, Initial residual = 0, Final residual = 0, No Iterations 0
diagonal:  Solving for T, Initial residual = 0, Final residual = 0, No Iterations 0
diagonal:  Solving for T, Initial residual = 0, Final residual = 0, No Iterations 0
 T goes from min(T) [0 0 0 0 0 0 0] -7.64083e+95 to max(T) [0 0 0 0 0 0 0] 7.45664e+95

ExecutionTime = 7.03 s  ClockTime = 151 s

Time = 3.8
Courant Number mean: 4.21414 max: 8.13524
diagonal:  Solving for T, Initial residual = 0, Final residual = 0, No Iterations 0
diagonal:  Solving for T, Initial residual = 0, Final residual = 0, No Iterations 0
diagonal:  Solving for T, Initial residual = 0, Final residual = 0, No Iterations 0
diagonal:  Solving for T, Initial residual = 0, Final residual = 0, No Iterations 0
 T goes from min(T) [0 0 0 0 0 0 0] -1.15961e+99 to max(T) [0 0 0 0 0 0 0] 1.16258e+99

ExecutionTime = 7.19 s  ClockTime = 154 s

Time = 3.9
Courant Number mean: 4.23111 max: 8.58239
diagonal:  Solving for T, Initial residual = 0, Final residual = 0, No Iterations 0
diagonal:  Solving for T, Initial residual = 0, Final residual = 0, No Iterations 0
diagonal:  Solving for T, Initial residual = 0, Final residual = 0, No Iterations 0
diagonal:  Solving for T, Initial residual = 0, Final residual = 0, No Iterations 0
 T goes from min(T) [0 0 0 0 0 0 0] -1.79372e+102 to max(T) [0 0 0 0 0 0 0] 1.9624e+102

ExecutionTime = 7.32 s  ClockTime = 157 s

Time = 4
Courant Number mean: 4.20634 max: 9.0105
diagonal:  Solving for T, Initial residual = 0, Final residual = 0, No Iterations 0
diagonal:  Solving for T, Initial residual = 0, Final residual = 0, No Iterations 0
diagonal:  Solving for T, Initial residual = 0, Final residual = 0, No Iterations 0
diagonal:  Solving for T, Initial residual = 0, Final residual = 0, No Iterations 0
 T goes from min(T) [0 0 0 0 0 0 0] -2.94716e+105 to max(T) [0 0 0 0 0 0 0] 2.53375e+105

ExecutionTime = 7.47 s  ClockTime = 160 s

Time = 4.1
Courant Number mean: 4.15768 max: 9.40298
diagonal:  Solving for T, Initial residual = 0, Final residual = 0, No Iterations 0
diagonal:  Solving for T, Initial residual = 0, Final residual = 0, No Iterations 0
diagonal:  Solving for T, Initial residual = 0, Final residual = 0, No Iterations 0
diagonal:  Solving for T, Initial residual = 0, Final residual = 0, No Iterations 0
 T goes from min(T) [0 0 0 0 0 0 0] -3.66216e+108 to max(T) [0 0 0 0 0 0 0] 3.72025e+108

ExecutionTime = 7.63 s  ClockTime = 163 s

Time = 4.2
Courant Number mean: 4.09329 max: 9.76757
diagonal:  Solving for T, Initial residual = 0, Final residual = 0, No Iterations 0
diagonal:  Solving for T, Initial residual = 0, Final residual = 0, No Iterations 0
diagonal:  Solving for T, Initial residual = 0, Final residual = 0, No Iterations 0
diagonal:  Solving for T, Initial residual = 0, Final residual = 0, No Iterations 0
 T goes from min(T) [0 0 0 0 0 0 0] -5.33775e+111 to max(T) [0 0 0 0 0 0 0] 4.72019e+111

ExecutionTime = 7.76 s  ClockTime = 166 s

Time = 4.3
Courant Number mean: 4.01772 max: 10.0929
diagonal:  Solving for T, Initial residual = 0, Final residual = 0, No Iterations 0
diagonal:  Solving for T, Initial residual = 0, Final residual = 0, No Iterations 0
diagonal:  Solving for T, Initial residual = 0, Final residual = 0, No Iterations 0
diagonal:  Solving for T, Initial residual = 0, Final residual = 0, No Iterations 0
 T goes from min(T) [0 0 0 0 0 0 0] -6.18614e+114 to max(T) [0 0 0 0 0 0 0] 5.13729e+114

ExecutionTime = 7.89 s  ClockTime = 169 s

Time = 4.4
Courant Number mean: 3.93285 max: 10.3601
diagonal:  Solving for T, Initial residual = 0, Final residual = 0, No Iterations 0
diagonal:  Solving for T, Initial residual = 0, Final residual = 0, No Iterations 0
diagonal:  Solving for T, Initial residual = 0, Final residual = 0, No Iterations 0
diagonal:  Solving for T, Initial residual = 0, Final residual = 0, No Iterations 0
 T goes from min(T) [0 0 0 0 0 0 0] -4.78423e+117 to max(T) [0 0 0 0 0 0 0] 3.82271e+117

ExecutionTime = 8.03 s  ClockTime = 172 s

Time = 4.5
Courant Number mean: 3.84153 max: 10.5852
diagonal:  Solving for T, Initial residual = 0, Final residual = 0, No Iterations 0
diagonal:  Solving for T, Initial residual = 0, Final residual = 0, No Iterations 0
diagonal:  Solving for T, Initial residual = 0, Final residual = 0, No Iterations 0
diagonal:  Solving for T, Initial residual = 0, Final residual = 0, No Iterations 0
 T goes from min(T) [0 0 0 0 0 0 0] -1.97484e+120 to max(T) [0 0 0 0 0 0 0] 2.09803e+120

ExecutionTime = 8.17 s  ClockTime = 175 s

Time = 4.6
Courant Number mean: 3.74635 max: 10.7472
diagonal:  Solving for T, Initial residual = 0, Final residual = 0, No Iterations 0
diagonal:  Solving for T, Initial residual = 0, Final residual = 0, No Iterations 0
diagonal:  Solving for T, Initial residual = 0, Final residual = 0, No Iterations 0
diagonal:  Solving for T, Initial residual = 0, Final residual = 0, No Iterations 0
 T goes from min(T) [0 0 0 0 0 0 0] -4.95212e+122 to max(T) [0 0 0 0 0 0 0] 5.32605e+122

ExecutionTime = 8.31 s  ClockTime = 177 s

Time = 4.7
Courant Number mean: 3.65126 max: 10.8449
diagonal:  Solving for T, Initial residual = 0, Final residual = 0, No Iterations 0
diagonal:  Solving for T, Initial residual = 0, Final residual = 0, No Iterations 0
diagonal:  Solving for T, Initial residual = 0, Final residual = 0, No Iterations 0
diagonal:  Solving for T, Initial residual = 0, Final residual = 0, No Iterations 0
 T goes from min(T) [0 0 0 0 0 0 0] -1.02312e+125 to max(T) [0 0 0 0 0 0 0] 1.17374e+125

ExecutionTime = 8.44 s  ClockTime = 180 s

Time = 4.8
Courant Number mean: 3.56312 max: 10.8389
diagonal:  Solving for T, Initial residual = 0, Final residual = 0, No Iterations 0
diagonal:  Solving for T, Initial residual = 0, Final residual = 0, No Iterations 0
diagonal:  Solving for T, Initial residual = 0, Final residual = 0, No Iterations 0
diagonal:  Solving for T, Initial residual = 0, Final residual = 0, No Iterations 0
 T goes from min(T) [0 0 0 0 0 0 0] -2.80855e+128 to max(T) [0 0 0 0 0 0 0] 2.5756e+128

ExecutionTime = 8.61 s  ClockTime = 184 s

Time = 4.9
Courant Number mean: 3.49589 max: 10.5753
diagonal:  Solving for T, Initial residual = 0, Final residual = 0, No Iterations 0
diagonal:  Solving for T, Initial residual = 0, Final residual = 0, No Iterations 0
diagonal:  Solving for T, Initial residual = 0, Final residual = 0, No Iterations 0
diagonal:  Solving for T, Initial residual = 0, Final residual = 0, No Iterations 0
 T goes from min(T) [0 0 0 0 0 0 0] -1.17209e+132 to max(T) [0 0 0 0 0 0 0] 1.00051e+132

ExecutionTime = 8.75 s  ClockTime = 187 s

Time = 5
Courant Number mean: 3.47259 max: 10.0899
diagonal:  Solving for T, Initial residual = 0, Final residual = 0, No Iterations 0
diagonal:  Solving for T, Initial residual = 0, Final residual = 0, No Iterations 0
diagonal:  Solving for T, Initial residual = 0, Final residual = 0, No Iterations 0
diagonal:  Solving for T, Initial residual = 0, Final residual = 0, No Iterations 0
 T goes from min(T) [0 0 0 0 0 0 0] -3.12335e+135 to max(T) [0 0 0 0 0 0 0] 2.79936e+135

ExecutionTime = 8.89 s  ClockTime = 190 s

Time = 5.1
Courant Number mean: 3.49589 max: 10.5753
diagonal:  Solving for T, Initial residual = 0, Final residual = 0, No Iterations 0
diagonal:  Solving for T, Initial residual = 0, Final residual = 0, No Iterations 0
diagonal:  Solving for T, Initial residual = 0, Final residual = 0, No Iterations 0
diagonal:  Solving for T, Initial residual = 0, Final residual = 0, No Iterations 0
 T goes from min(T) [0 0 0 0 0 0 0] -4.68959e+138 to max(T) [0 0 0 0 0 0 0] 4.5184e+138

ExecutionTime = 9.01 s  ClockTime = 192 s

Time = 5.2
Courant Number mean: 3.56312 max: 10.8389
diagonal:  Solving for T, Initial residual = 0, Final residual = 0, No Iterations 0
diagonal:  Solving for T, Initial residual = 0, Final residual = 0, No Iterations 0
diagonal:  Solving for T, Initial residual = 0, Final residual = 0, No Iterations 0
diagonal:  Solving for T, Initial residual = 0, Final residual = 0, No Iterations 0
 T goes from min(T) [0 0 0 0 0 0 0] -5.05452e+141 to max(T) [0 0 0 0 0 0 0] 4.19146e+141

ExecutionTime = 9.15 s  ClockTime = 195 s

Time = 5.3
Courant Number mean: 3.65126 max: 10.8449
diagonal:  Solving for T, Initial residual = 0, Final residual = 0, No Iterations 0
diagonal:  Solving for T, Initial residual = 0, Final residual = 0, No Iterations 0
diagonal:  Solving for T, Initial residual = 0, Final residual = 0, No Iterations 0
diagonal:  Solving for T, Initial residual = 0, Final residual = 0, No Iterations 0
 T goes from min(T) [0 0 0 0 0 0 0] -2.47308e+144 to max(T) [0 0 0 0 0 0 0] 2.54323e+144

ExecutionTime = 9.28 s  ClockTime = 198 s

Time = 5.4
Courant Number mean: 3.74635 max: 10.7472
diagonal:  Solving for T, Initial residual = 0, Final residual = 0, No Iterations 0
diagonal:  Solving for T, Initial residual = 0, Final residual = 0, No Iterations 0
diagonal:  Solving for T, Initial residual = 0, Final residual = 0, No Iterations 0
diagonal:  Solving for T, Initial residual = 0, Final residual = 0, No Iterations 0
 T goes from min(T) [0 0 0 0 0 0 0] -1.5427e+147 to max(T) [0 0 0 0 0 0 0] 1.50696e+147

ExecutionTime = 9.41 s  ClockTime = 201 s

Time = 5.5
Courant Number mean: 3.84153 max: 10.5852
diagonal:  Solving for T, Initial residual = 0, Final residual = 0, No Iterations 0
diagonal:  Solving for T, Initial residual = 0, Final residual = 0, No Iterations 0
diagonal:  Solving for T, Initial residual = 0, Final residual = 0, No Iterations 0
diagonal:  Solving for T, Initial residual = 0, Final residual = 0, No Iterations 0
 T goes from min(T) [0 0 0 0 0 0 0] -2.58529e+150 to max(T) [0 0 0 0 0 0 0] 2.35345e+150

ExecutionTime = 9.54 s  ClockTime = 203 s

Time = 5.6
Courant Number mean: 3.93285 max: 10.3601
diagonal:  Solving for T, Initial residual = 0, Final residual = 0, No Iterations 0
diagonal:  Solving for T, Initial residual = 0, Final residual = 0, No Iterations 0
diagonal:  Solving for T, Initial residual = 0, Final residual = 0, No Iterations 0
diagonal:  Solving for T, Initial residual = 0, Final residual = 0, No Iterations 0
 T goes from min(T) [0 0 0 0 0 0 0] -6.26106e+153 to max(T) [0 0 0 0 0 0 0] 5.87109e+153

ExecutionTime = 9.67 s  ClockTime = 206 s

Time = 5.7
Courant Number mean: 4.01772 max: 10.0929
diagonal:  Solving for T, Initial residual = 0, Final residual = 0, No Iterations 0
diagonal:  Solving for T, Initial residual = 0, Final residual = 0, No Iterations 0
diagonal:  Solving for T, Initial residual = 0, Final residual = 0, No Iterations 0
diagonal:  Solving for T, Initial residual = 0, Final residual = 0, No Iterations 0
 T goes from min(T) [0 0 0 0 0 0 0] -2.0081e+157 to max(T) [0 0 0 0 0 0 0] 1.72568e+157

ExecutionTime = 9.81 s  ClockTime = 209 s

Time = 5.8
Courant Number mean: 4.09329 max: 9.76757
diagonal:  Solving for T, Initial residual = 0, Final residual = 0, No Iterations 0
diagonal:  Solving for T, Initial residual = 0, Final residual = 0, No Iterations 0
diagonal:  Solving for T, Initial residual = 0, Final residual = 0, No Iterations 0
diagonal:  Solving for T, Initial residual = 0, Final residual = 0, No Iterations 0
 T goes from min(T) [0 0 0 0 0 0 0] -5.34475e+160 to max(T) [0 0 0 0 0 0 0] 5.83295e+160

ExecutionTime = 9.93 s  ClockTime = 212 s

Time = 5.9
Courant Number mean: 4.15768 max: 9.40298
diagonal:  Solving for T, Initial residual = 0, Final residual = 0, No Iterations 0
diagonal:  Solving for T, Initial residual = 0, Final residual = 0, No Iterations 0
diagonal:  Solving for T, Initial residual = 0, Final residual = 0, No Iterations 0
diagonal:  Solving for T, Initial residual = 0, Final residual = 0, No Iterations 0
 T goes from min(T) [0 0 0 0 0 0 0] -1.26215e+164 to max(T) [0 0 0 0 0 0 0] 1.49534e+164

ExecutionTime = 10.07 s  ClockTime = 215 s

Time = 6
Courant Number mean: 4.20634 max: 9.0105
diagonal:  Solving for T, Initial residual = 0, Final residual = 0, No Iterations 0
diagonal:  Solving for T, Initial residual = 0, Final residual = 0, No Iterations 0
diagonal:  Solving for T, Initial residual = 0, Final residual = 0, No Iterations 0
diagonal:  Solving for T, Initial residual = 0, Final residual = 0, No Iterations 0
 T goes from min(T) [0 0 0 0 0 0 0] -3.11813e+167 to max(T) [0 0 0 0 0 0 0] 3.11283e+167

ExecutionTime = 10.2 s  ClockTime = 217 s

End

