/*---------------------------------------------------------------------------*\
| =========                 |                                                 |
| \\      /  F ield         | OpenFOAM: The Open Source CFD Toolbox           |
|  \\    /   O peration     | Version:  dev                                   |
|   \\  /    A nd           | Web:      www.OpenFOAM.org                      |
|    \\/     M anipulation  |                                                 |
\*---------------------------------------------------------------------------*/
Build  : dev-90f39e0d894d
Exec   : scalarDeformationWithGhosts explicit -case nonOrthogW/120x60/c1_explicit
Date   : May 23 2017
Time   : 20:31:16
Host   : "sws02hw.private.rdg.ac.uk"
PID    : 22910
Case   : nonOrthogW/120x60/c1_explicit
nProcs : 1
sigFpe : Enabling floating point exception trapping (FOAM_SIGFPE).
fileModificationChecking : Monitoring run-time modified files using timeStampMaster (fileModificationSkew 10)
allowSystemOperations : Allowing user-supplied system call operations

// * * * * * * * * * * * * * * * * * * * * * * * * * * * * * * * * * * * * * //
Create time

Create mesh for time = 0

Reading field T

Reading fields phi (compulsory), U and Uf (optional)

Calculating owner stencils
Calculating neighbour stencils

Calculating scalar transport

Courant Number mean: 0.466051 max: 0.965781
Time = 0.01
Courant Number mean: 0.466026 max: 0.968605
diagonal:  Solving for T, Initial residual = 0, Final residual = 0, No Iterations 0
diagonal:  Solving for T, Initial residual = 0, Final residual = 0, No Iterations 0
diagonal:  Solving for T, Initial residual = 0, Final residual = 0, No Iterations 0
diagonal:  Solving for T, Initial residual = 0, Final residual = 0, No Iterations 0
 T goes from min(T) [0 0 0 0 0 0 0] 1.06338e-20 to max(T) [0 0 0 0 0 0 0] 0.953327

ExecutionTime = 2.17 s  ClockTime = 29 s

Time = 0.02
Courant Number mean: 0.465939 max: 0.971176
diagonal:  Solving for T, Initial residual = 0, Final residual = 0, No Iterations 0
diagonal:  Solving for T, Initial residual = 0, Final residual = 0, No Iterations 0
diagonal:  Solving for T, Initial residual = 0, Final residual = 0, No Iterations 0
diagonal:  Solving for T, Initial residual = 0, Final residual = 0, No Iterations 0
 T goes from min(T) [0 0 0 0 0 0 0] 1.03127e-20 to max(T) [0 0 0 0 0 0 0] 0.95118

ExecutionTime = 2.31 s  ClockTime = 32 s

Time = 0.03
Courant Number mean: 0.465804 max: 0.97349
diagonal:  Solving for T, Initial residual = 0, Final residual = 0, No Iterations 0
diagonal:  Solving for T, Initial residual = 0, Final residual = 0, No Iterations 0
diagonal:  Solving for T, Initial residual = 0, Final residual = 0, No Iterations 0
diagonal:  Solving for T, Initial residual = 0, Final residual = 0, No Iterations 0
 T goes from min(T) [0 0 0 0 0 0 0] 1.26896e-20 to max(T) [0 0 0 0 0 0 0] 0.953322

ExecutionTime = 2.46 s  ClockTime = 35 s

Time = 0.04
Courant Number mean: 0.465613 max: 0.975548
diagonal:  Solving for T, Initial residual = 0, Final residual = 0, No Iterations 0
diagonal:  Solving for T, Initial residual = 0, Final residual = 0, No Iterations 0
diagonal:  Solving for T, Initial residual = 0, Final residual = 0, No Iterations 0
diagonal:  Solving for T, Initial residual = 0, Final residual = 0, No Iterations 0
 T goes from min(T) [0 0 0 0 0 0 0] -1.17515e-15 to max(T) [0 0 0 0 0 0 0] 0.952066

ExecutionTime = 2.59 s  ClockTime = 37 s

Time = 0.05
Courant Number mean: 0.465366 max: 0.977959
diagonal:  Solving for T, Initial residual = 0, Final residual = 0, No Iterations 0
diagonal:  Solving for T, Initial residual = 0, Final residual = 0, No Iterations 0
diagonal:  Solving for T, Initial residual = 0, Final residual = 0, No Iterations 0
diagonal:  Solving for T, Initial residual = 0, Final residual = 0, No Iterations 0
 T goes from min(T) [0 0 0 0 0 0 0] -5.5614e-18 to max(T) [0 0 0 0 0 0 0] 0.95296

ExecutionTime = 2.71 s  ClockTime = 39 s

Time = 0.06
Courant Number mean: 0.465065 max: 0.98035
diagonal:  Solving for T, Initial residual = 0, Final residual = 0, No Iterations 0
diagonal:  Solving for T, Initial residual = 0, Final residual = 0, No Iterations 0
diagonal:  Solving for T, Initial residual = 0, Final residual = 0, No Iterations 0
diagonal:  Solving for T, Initial residual = 0, Final residual = 0, No Iterations 0
 T goes from min(T) [0 0 0 0 0 0 0] -8.9455e-17 to max(T) [0 0 0 0 0 0 0] 0.951499

ExecutionTime = 2.85 s  ClockTime = 42 s

Time = 0.07
Courant Number mean: 0.464713 max: 0.982873
diagonal:  Solving for T, Initial residual = 0, Final residual = 0, No Iterations 0
diagonal:  Solving for T, Initial residual = 0, Final residual = 0, No Iterations 0
diagonal:  Solving for T, Initial residual = 0, Final residual = 0, No Iterations 0
diagonal:  Solving for T, Initial residual = 0, Final residual = 0, No Iterations 0
 T goes from min(T) [0 0 0 0 0 0 0] -1.11865e-16 to max(T) [0 0 0 0 0 0 0] 0.952884

ExecutionTime = 2.97 s  ClockTime = 44 s

Time = 0.08
Courant Number mean: 0.464306 max: 0.985137
diagonal:  Solving for T, Initial residual = 0, Final residual = 0, No Iterations 0
diagonal:  Solving for T, Initial residual = 0, Final residual = 0, No Iterations 0
diagonal:  Solving for T, Initial residual = 0, Final residual = 0, No Iterations 0
diagonal:  Solving for T, Initial residual = 0, Final residual = 0, No Iterations 0
 T goes from min(T) [0 0 0 0 0 0 0] -1.53767e-16 to max(T) [0 0 0 0 0 0 0] 0.952003

ExecutionTime = 3.1 s  ClockTime = 46 s

Time = 0.09
Courant Number mean: 0.463841 max: 0.987388
diagonal:  Solving for T, Initial residual = 0, Final residual = 0, No Iterations 0
diagonal:  Solving for T, Initial residual = 0, Final residual = 0, No Iterations 0
diagonal:  Solving for T, Initial residual = 0, Final residual = 0, No Iterations 0
diagonal:  Solving for T, Initial residual = 0, Final residual = 0, No Iterations 0
 T goes from min(T) [0 0 0 0 0 0 0] -2.11722e-17 to max(T) [0 0 0 0 0 0 0] 0.952821

ExecutionTime = 3.23 s  ClockTime = 49 s

Time = 0.1
Courant Number mean: 0.463323 max: 0.989875
diagonal:  Solving for T, Initial residual = 0, Final residual = 0, No Iterations 0
diagonal:  Solving for T, Initial residual = 0, Final residual = 0, No Iterations 0
diagonal:  Solving for T, Initial residual = 0, Final residual = 0, No Iterations 0
diagonal:  Solving for T, Initial residual = 0, Final residual = 0, No Iterations 0
 T goes from min(T) [0 0 0 0 0 0 0] -8.12036e-17 to max(T) [0 0 0 0 0 0 0] 0.952405

ExecutionTime = 3.36 s  ClockTime = 51 s

Time = 0.11
Courant Number mean: 0.462753 max: 0.992099
diagonal:  Solving for T, Initial residual = 0, Final residual = 0, No Iterations 0
diagonal:  Solving for T, Initial residual = 0, Final residual = 0, No Iterations 0
diagonal:  Solving for T, Initial residual = 0, Final residual = 0, No Iterations 0
diagonal:  Solving for T, Initial residual = 0, Final residual = 0, No Iterations 0
 T goes from min(T) [0 0 0 0 0 0 0] -3.976e-18 to max(T) [0 0 0 0 0 0 0] 0.95153

ExecutionTime = 3.49 s  ClockTime = 54 s

Time = 0.12
Courant Number mean: 0.462129 max: 0.994059
diagonal:  Solving for T, Initial residual = 0, Final residual = 0, No Iterations 0
diagonal:  Solving for T, Initial residual = 0, Final residual = 0, No Iterations 0
diagonal:  Solving for T, Initial residual = 0, Final residual = 0, No Iterations 0
diagonal:  Solving for T, Initial residual = 0, Final residual = 0, No Iterations 0
 T goes from min(T) [0 0 0 0 0 0 0] -6.44205e-17 to max(T) [0 0 0 0 0 0 0] 0.953089

ExecutionTime = 3.62 s  ClockTime = 56 s

Time = 0.13
Courant Number mean: 0.461448 max: 0.995753
diagonal:  Solving for T, Initial residual = 0, Final residual = 0, No Iterations 0
diagonal:  Solving for T, Initial residual = 0, Final residual = 0, No Iterations 0
diagonal:  Solving for T, Initial residual = 0, Final residual = 0, No Iterations 0
diagonal:  Solving for T, Initial residual = 0, Final residual = 0, No Iterations 0
 T goes from min(T) [0 0 0 0 0 0 0] -1.82719e-17 to max(T) [0 0 0 0 0 0 0] 0.953573

ExecutionTime = 3.75 s  ClockTime = 59 s

Time = 0.14
Courant Number mean: 0.460714 max: 0.99765
diagonal:  Solving for T, Initial residual = 0, Final residual = 0, No Iterations 0
diagonal:  Solving for T, Initial residual = 0, Final residual = 0, No Iterations 0
diagonal:  Solving for T, Initial residual = 0, Final residual = 0, No Iterations 0
diagonal:  Solving for T, Initial residual = 0, Final residual = 0, No Iterations 0
 T goes from min(T) [0 0 0 0 0 0 0] -6.52554e-16 to max(T) [0 0 0 0 0 0 0] 0.953159

ExecutionTime = 3.89 s  ClockTime = 61 s

Time = 0.15
Courant Number mean: 0.459935 max: 1.00008
diagonal:  Solving for T, Initial residual = 0, Final residual = 0, No Iterations 0
diagonal:  Solving for T, Initial residual = 0, Final residual = 0, No Iterations 0
diagonal:  Solving for T, Initial residual = 0, Final residual = 0, No Iterations 0
diagonal:  Solving for T, Initial residual = 0, Final residual = 0, No Iterations 0
 T goes from min(T) [0 0 0 0 0 0 0] -1.87117e-15 to max(T) [0 0 0 0 0 0 0] 0.951521

ExecutionTime = 4.02 s  ClockTime = 64 s

Time = 0.16
Courant Number mean: 0.459096 max: 1.00225
diagonal:  Solving for T, Initial residual = 0, Final residual = 0, No Iterations 0
diagonal:  Solving for T, Initial residual = 0, Final residual = 0, No Iterations 0
diagonal:  Solving for T, Initial residual = 0, Final residual = 0, No Iterations 0
diagonal:  Solving for T, Initial residual = 0, Final residual = 0, No Iterations 0
 T goes from min(T) [0 0 0 0 0 0 0] -5.59013e-15 to max(T) [0 0 0 0 0 0 0] 0.951375

ExecutionTime = 4.15 s  ClockTime = 66 s

Time = 0.17
Courant Number mean: 0.458221 max: 1.00416
diagonal:  Solving for T, Initial residual = 0, Final residual = 0, No Iterations 0
diagonal:  Solving for T, Initial residual = 0, Final residual = 0, No Iterations 0
diagonal:  Solving for T, Initial residual = 0, Final residual = 0, No Iterations 0
diagonal:  Solving for T, Initial residual = 0, Final residual = 0, No Iterations 0
 T goes from min(T) [0 0 0 0 0 0 0] -1.40045e-14 to max(T) [0 0 0 0 0 0 0] 0.953785

ExecutionTime = 4.28 s  ClockTime = 69 s

Time = 0.18
Courant Number mean: 0.457321 max: 1.0058
diagonal:  Solving for T, Initial residual = 0, Final residual = 0, No Iterations 0
diagonal:  Solving for T, Initial residual = 0, Final residual = 0, No Iterations 0
diagonal:  Solving for T, Initial residual = 0, Final residual = 0, No Iterations 0
diagonal:  Solving for T, Initial residual = 0, Final residual = 0, No Iterations 0
 T goes from min(T) [0 0 0 0 0 0 0] -6.37251e-14 to max(T) [0 0 0 0 0 0 0] 0.953491

ExecutionTime = 4.41 s  ClockTime = 71 s

Time = 0.19
Courant Number mean: 0.45638 max: 1.00716
diagonal:  Solving for T, Initial residual = 0, Final residual = 0, No Iterations 0
diagonal:  Solving for T, Initial residual = 0, Final residual = 0, No Iterations 0
diagonal:  Solving for T, Initial residual = 0, Final residual = 0, No Iterations 0
diagonal:  Solving for T, Initial residual = 0, Final residual = 0, No Iterations 0
 T goes from min(T) [0 0 0 0 0 0 0] -8.78981e-14 to max(T) [0 0 0 0 0 0 0] 0.950842

ExecutionTime = 4.54 s  ClockTime = 74 s

Time = 0.2
Courant Number mean: 0.455401 max: 1.00852
diagonal:  Solving for T, Initial residual = 0, Final residual = 0, No Iterations 0
diagonal:  Solving for T, Initial residual = 0, Final residual = 0, No Iterations 0
diagonal:  Solving for T, Initial residual = 0, Final residual = 0, No Iterations 0
diagonal:  Solving for T, Initial residual = 0, Final residual = 0, No Iterations 0
 T goes from min(T) [0 0 0 0 0 0 0] -1.77515e-13 to max(T) [0 0 0 0 0 0 0] 0.95171

ExecutionTime = 4.66 s  ClockTime = 76 s

Time = 0.21
Courant Number mean: 0.454375 max: 1.01062
diagonal:  Solving for T, Initial residual = 0, Final residual = 0, No Iterations 0
diagonal:  Solving for T, Initial residual = 0, Final residual = 0, No Iterations 0
diagonal:  Solving for T, Initial residual = 0, Final residual = 0, No Iterations 0
diagonal:  Solving for T, Initial residual = 0, Final residual = 0, No Iterations 0
 T goes from min(T) [0 0 0 0 0 0 0] -3.30043e-13 to max(T) [0 0 0 0 0 0 0] 0.951713

ExecutionTime = 4.79 s  ClockTime = 79 s

Time = 0.22
Courant Number mean: 0.453344 max: 1.01245
diagonal:  Solving for T, Initial residual = 0, Final residual = 0, No Iterations 0
diagonal:  Solving for T, Initial residual = 0, Final residual = 0, No Iterations 0
diagonal:  Solving for T, Initial residual = 0, Final residual = 0, No Iterations 0
diagonal:  Solving for T, Initial residual = 0, Final residual = 0, No Iterations 0
 T goes from min(T) [0 0 0 0 0 0 0] -4.35393e-13 to max(T) [0 0 0 0 0 0 0] 0.952711

ExecutionTime = 4.92 s  ClockTime = 81 s

Time = 0.23
Courant Number mean: 0.45229 max: 1.01401
diagonal:  Solving for T, Initial residual = 0, Final residual = 0, No Iterations 0
diagonal:  Solving for T, Initial residual = 0, Final residual = 0, No Iterations 0
diagonal:  Solving for T, Initial residual = 0, Final residual = 0, No Iterations 0
diagonal:  Solving for T, Initial residual = 0, Final residual = 0, No Iterations 0
 T goes from min(T) [0 0 0 0 0 0 0] -4.83064e-13 to max(T) [0 0 0 0 0 0 0] 0.953276

ExecutionTime = 5.05 s  ClockTime = 83 s

Time = 0.24
Courant Number mean: 0.451196 max: 1.0153
diagonal:  Solving for T, Initial residual = 0, Final residual = 0, No Iterations 0
diagonal:  Solving for T, Initial residual = 0, Final residual = 0, No Iterations 0
diagonal:  Solving for T, Initial residual = 0, Final residual = 0, No Iterations 0
diagonal:  Solving for T, Initial residual = 0, Final residual = 0, No Iterations 0
 T goes from min(T) [0 0 0 0 0 0 0] -6.81011e-13 to max(T) [0 0 0 0 0 0 0] 0.953226

ExecutionTime = 5.17 s  ClockTime = 86 s

Time = 0.25
Courant Number mean: 0.450062 max: 1.01663
diagonal:  Solving for T, Initial residual = 0, Final residual = 0, No Iterations 0
diagonal:  Solving for T, Initial residual = 0, Final residual = 0, No Iterations 0
diagonal:  Solving for T, Initial residual = 0, Final residual = 0, No Iterations 0
diagonal:  Solving for T, Initial residual = 0, Final residual = 0, No Iterations 0
 T goes from min(T) [0 0 0 0 0 0 0] -7.57598e-13 to max(T) [0 0 0 0 0 0 0] 0.951035

ExecutionTime = 5.29 s  ClockTime = 88 s

Time = 0.26
Courant Number mean: 0.448914 max: 1.01819
diagonal:  Solving for T, Initial residual = 0, Final residual = 0, No Iterations 0
diagonal:  Solving for T, Initial residual = 0, Final residual = 0, No Iterations 0
diagonal:  Solving for T, Initial residual = 0, Final residual = 0, No Iterations 0
diagonal:  Solving for T, Initial residual = 0, Final residual = 0, No Iterations 0
 T goes from min(T) [0 0 0 0 0 0 0] -1.22864e-12 to max(T) [0 0 0 0 0 0 0] 0.95095

ExecutionTime = 5.41 s  ClockTime = 90 s

Time = 0.27
Courant Number mean: 0.447755 max: 1.01946
diagonal:  Solving for T, Initial residual = 0, Final residual = 0, No Iterations 0
diagonal:  Solving for T, Initial residual = 0, Final residual = 0, No Iterations 0
diagonal:  Solving for T, Initial residual = 0, Final residual = 0, No Iterations 0
diagonal:  Solving for T, Initial residual = 0, Final residual = 0, No Iterations 0
 T goes from min(T) [0 0 0 0 0 0 0] -2.40561e-12 to max(T) [0 0 0 0 0 0 0] 0.950321

ExecutionTime = 5.54 s  ClockTime = 93 s

Time = 0.28
Courant Number mean: 0.44656 max: 1.02047
diagonal:  Solving for T, Initial residual = 0, Final residual = 0, No Iterations 0
diagonal:  Solving for T, Initial residual = 0, Final residual = 0, No Iterations 0
diagonal:  Solving for T, Initial residual = 0, Final residual = 0, No Iterations 0
diagonal:  Solving for T, Initial residual = 0, Final residual = 0, No Iterations 0
 T goes from min(T) [0 0 0 0 0 0 0] -2.29922e-12 to max(T) [0 0 0 0 0 0 0] 0.951542

ExecutionTime = 5.68 s  ClockTime = 96 s

Time = 0.29
Courant Number mean: 0.445329 max: 1.02155
diagonal:  Solving for T, Initial residual = 0, Final residual = 0, No Iterations 0
diagonal:  Solving for T, Initial residual = 0, Final residual = 0, No Iterations 0
diagonal:  Solving for T, Initial residual = 0, Final residual = 0, No Iterations 0
diagonal:  Solving for T, Initial residual = 0, Final residual = 0, No Iterations 0
 T goes from min(T) [0 0 0 0 0 0 0] -2.12421e-12 to max(T) [0 0 0 0 0 0 0] 0.95204

ExecutionTime = 5.81 s  ClockTime = 98 s

Time = 0.3
Courant Number mean: 0.444076 max: 1.02311
diagonal:  Solving for T, Initial residual = 0, Final residual = 0, No Iterations 0
diagonal:  Solving for T, Initial residual = 0, Final residual = 0, No Iterations 0
diagonal:  Solving for T, Initial residual = 0, Final residual = 0, No Iterations 0
diagonal:  Solving for T, Initial residual = 0, Final residual = 0, No Iterations 0
 T goes from min(T) [0 0 0 0 0 0 0] -5.8999e-12 to max(T) [0 0 0 0 0 0 0] 0.953152

ExecutionTime = 5.92 s  ClockTime = 100 s

Time = 0.31
Courant Number mean: 0.442829 max: 1.02458
diagonal:  Solving for T, Initial residual = 0, Final residual = 0, No Iterations 0
diagonal:  Solving for T, Initial residual = 0, Final residual = 0, No Iterations 0
diagonal:  Solving for T, Initial residual = 0, Final residual = 0, No Iterations 0
diagonal:  Solving for T, Initial residual = 0, Final residual = 0, No Iterations 0
 T goes from min(T) [0 0 0 0 0 0 0] -1.79041e-11 to max(T) [0 0 0 0 0 0 0] 0.952124

ExecutionTime = 6.04 s  ClockTime = 102 s

Time = 0.32
Courant Number mean: 0.441555 max: 1.02578
diagonal:  Solving for T, Initial residual = 0, Final residual = 0, No Iterations 0
diagonal:  Solving for T, Initial residual = 0, Final residual = 0, No Iterations 0
diagonal:  Solving for T, Initial residual = 0, Final residual = 0, No Iterations 0
diagonal:  Solving for T, Initial residual = 0, Final residual = 0, No Iterations 0
 T goes from min(T) [0 0 0 0 0 0 0] -1.30443e-10 to max(T) [0 0 0 0 0 0 0] 0.951359

ExecutionTime = 6.16 s  ClockTime = 105 s

Time = 0.33
Courant Number mean: 0.440252 max: 1.0267
diagonal:  Solving for T, Initial residual = 0, Final residual = 0, No Iterations 0
diagonal:  Solving for T, Initial residual = 0, Final residual = 0, No Iterations 0
diagonal:  Solving for T, Initial residual = 0, Final residual = 0, No Iterations 0
diagonal:  Solving for T, Initial residual = 0, Final residual = 0, No Iterations 0
 T goes from min(T) [0 0 0 0 0 0 0] -2.71176e-10 to max(T) [0 0 0 0 0 0 0] 0.950576

ExecutionTime = 6.29 s  ClockTime = 107 s

Time = 0.34
Courant Number mean: 0.438915 max: 1.02736
diagonal:  Solving for T, Initial residual = 0, Final residual = 0, No Iterations 0
diagonal:  Solving for T, Initial residual = 0, Final residual = 0, No Iterations 0
diagonal:  Solving for T, Initial residual = 0, Final residual = 0, No Iterations 0
diagonal:  Solving for T, Initial residual = 0, Final residual = 0, No Iterations 0
 T goes from min(T) [0 0 0 0 0 0 0] -3.92257e-10 to max(T) [0 0 0 0 0 0 0] 0.947925

ExecutionTime = 6.42 s  ClockTime = 109 s

Time = 0.35
Courant Number mean: 0.437588 max: 1.02774
diagonal:  Solving for T, Initial residual = 0, Final residual = 0, No Iterations 0
diagonal:  Solving for T, Initial residual = 0, Final residual = 0, No Iterations 0
diagonal:  Solving for T, Initial residual = 0, Final residual = 0, No Iterations 0
diagonal:  Solving for T, Initial residual = 0, Final residual = 0, No Iterations 0
 T goes from min(T) [0 0 0 0 0 0 0] -2.95488e-09 to max(T) [0 0 0 0 0 0 0] 0.948722

ExecutionTime = 6.57 s  ClockTime = 112 s

Time = 0.36
Courant Number mean: 0.436241 max: 1.02902
diagonal:  Solving for T, Initial residual = 0, Final residual = 0, No Iterations 0
diagonal:  Solving for T, Initial residual = 0, Final residual = 0, No Iterations 0
diagonal:  Solving for T, Initial residual = 0, Final residual = 0, No Iterations 0
diagonal:  Solving for T, Initial residual = 0, Final residual = 0, No Iterations 0
 T goes from min(T) [0 0 0 0 0 0 0] -5.47739e-09 to max(T) [0 0 0 0 0 0 0] 0.951061

ExecutionTime = 6.71 s  ClockTime = 115 s

Time = 0.37
Courant Number mean: 0.434865 max: 1.03013
diagonal:  Solving for T, Initial residual = 0, Final residual = 0, No Iterations 0
diagonal:  Solving for T, Initial residual = 0, Final residual = 0, No Iterations 0
diagonal:  Solving for T, Initial residual = 0, Final residual = 0, No Iterations 0
diagonal:  Solving for T, Initial residual = 0, Final residual = 0, No Iterations 0
 T goes from min(T) [0 0 0 0 0 0 0] -7.72533e-09 to max(T) [0 0 0 0 0 0 0] 0.947598

ExecutionTime = 6.84 s  ClockTime = 117 s

Time = 0.38
Courant Number mean: 0.433464 max: 1.03096
diagonal:  Solving for T, Initial residual = 0, Final residual = 0, No Iterations 0
diagonal:  Solving for T, Initial residual = 0, Final residual = 0, No Iterations 0
diagonal:  Solving for T, Initial residual = 0, Final residual = 0, No Iterations 0
diagonal:  Solving for T, Initial residual = 0, Final residual = 0, No Iterations 0
 T goes from min(T) [0 0 0 0 0 0 0] -9.74111e-09 to max(T) [0 0 0 0 0 0 0] 0.943034

ExecutionTime = 6.96 s  ClockTime = 120 s

Time = 0.39
Courant Number mean: 0.432059 max: 1.03152
diagonal:  Solving for T, Initial residual = 0, Final residual = 0, No Iterations 0
diagonal:  Solving for T, Initial residual = 0, Final residual = 0, No Iterations 0
diagonal:  Solving for T, Initial residual = 0, Final residual = 0, No Iterations 0
diagonal:  Solving for T, Initial residual = 0, Final residual = 0, No Iterations 0
 T goes from min(T) [0 0 0 0 0 0 0] -1.15592e-08 to max(T) [0 0 0 0 0 0 0] 0.944867

ExecutionTime = 7.08 s  ClockTime = 122 s

Time = 0.4
Courant Number mean: 0.430648 max: 1.03181
diagonal:  Solving for T, Initial residual = 0, Final residual = 0, No Iterations 0
diagonal:  Solving for T, Initial residual = 0, Final residual = 0, No Iterations 0
diagonal:  Solving for T, Initial residual = 0, Final residual = 0, No Iterations 0
diagonal:  Solving for T, Initial residual = 0, Final residual = 0, No Iterations 0
 T goes from min(T) [0 0 0 0 0 0 0] -1.32076e-08 to max(T) [0 0 0 0 0 0 0] 0.948976

ExecutionTime = 7.21 s  ClockTime = 125 s

Time = 0.41
Courant Number mean: 0.429213 max: 1.0319
diagonal:  Solving for T, Initial residual = 0, Final residual = 0, No Iterations 0
diagonal:  Solving for T, Initial residual = 0, Final residual = 0, No Iterations 0
diagonal:  Solving for T, Initial residual = 0, Final residual = 0, No Iterations 0
diagonal:  Solving for T, Initial residual = 0, Final residual = 0, No Iterations 0
 T goes from min(T) [0 0 0 0 0 0 0] -2.51187e-08 to max(T) [0 0 0 0 0 0 0] 0.947302

ExecutionTime = 7.35 s  ClockTime = 127 s

Time = 0.42
Courant Number mean: 0.427748 max: 1.03249
diagonal:  Solving for T, Initial residual = 0, Final residual = 0, No Iterations 0
diagonal:  Solving for T, Initial residual = 0, Final residual = 0, No Iterations 0
diagonal:  Solving for T, Initial residual = 0, Final residual = 0, No Iterations 0
diagonal:  Solving for T, Initial residual = 0, Final residual = 0, No Iterations 0
 T goes from min(T) [0 0 0 0 0 0 0] -6.37069e-08 to max(T) [0 0 0 0 0 0 0] 0.942636

ExecutionTime = 7.47 s  ClockTime = 130 s

Time = 0.43
Courant Number mean: 0.426269 max: 1.03322
diagonal:  Solving for T, Initial residual = 0, Final residual = 0, No Iterations 0
diagonal:  Solving for T, Initial residual = 0, Final residual = 0, No Iterations 0
diagonal:  Solving for T, Initial residual = 0, Final residual = 0, No Iterations 0
diagonal:  Solving for T, Initial residual = 0, Final residual = 0, No Iterations 0
 T goes from min(T) [0 0 0 0 0 0 0] -1.01595e-07 to max(T) [0 0 0 0 0 0 0] 0.941591

ExecutionTime = 7.62 s  ClockTime = 133 s

Time = 0.44
Courant Number mean: 0.424802 max: 1.03367
diagonal:  Solving for T, Initial residual = 0, Final residual = 0, No Iterations 0
diagonal:  Solving for T, Initial residual = 0, Final residual = 0, No Iterations 0
diagonal:  Solving for T, Initial residual = 0, Final residual = 0, No Iterations 0
diagonal:  Solving for T, Initial residual = 0, Final residual = 0, No Iterations 0
 T goes from min(T) [0 0 0 0 0 0 0] -1.36482e-07 to max(T) [0 0 0 0 0 0 0] 0.944864

ExecutionTime = 7.74 s  ClockTime = 136 s

Time = 0.45
Courant Number mean: 0.423321 max: 1.03386
diagonal:  Solving for T, Initial residual = 0, Final residual = 0, No Iterations 0
diagonal:  Solving for T, Initial residual = 0, Final residual = 0, No Iterations 0
diagonal:  Solving for T, Initial residual = 0, Final residual = 0, No Iterations 0
diagonal:  Solving for T, Initial residual = 0, Final residual = 0, No Iterations 0
 T goes from min(T) [0 0 0 0 0 0 0] -1.68602e-07 to max(T) [0 0 0 0 0 0 0] 0.947389

ExecutionTime = 7.87 s  ClockTime = 139 s

Time = 0.46
Courant Number mean: 0.421811 max: 1.03412
diagonal:  Solving for T, Initial residual = 0, Final residual = 0, No Iterations 0
diagonal:  Solving for T, Initial residual = 0, Final residual = 0, No Iterations 0
diagonal:  Solving for T, Initial residual = 0, Final residual = 0, No Iterations 0
diagonal:  Solving for T, Initial residual = 0, Final residual = 0, No Iterations 0
 T goes from min(T) [0 0 0 0 0 0 0] -1.98181e-07 to max(T) [0 0 0 0 0 0 0] 0.944505

ExecutionTime = 7.99 s  ClockTime = 141 s

Time = 0.47
Courant Number mean: 0.420279 max: 1.0346
diagonal:  Solving for T, Initial residual = 0, Final residual = 0, No Iterations 0
diagonal:  Solving for T, Initial residual = 0, Final residual = 0, No Iterations 0
diagonal:  Solving for T, Initial residual = 0, Final residual = 0, No Iterations 0
diagonal:  Solving for T, Initial residual = 0, Final residual = 0, No Iterations 0
 T goes from min(T) [0 0 0 0 0 0 0] -2.25449e-07 to max(T) [0 0 0 0 0 0 0] 0.941326

ExecutionTime = 8.12 s  ClockTime = 144 s

Time = 0.48
Courant Number mean: 0.418755 max: 1.03481
diagonal:  Solving for T, Initial residual = 0, Final residual = 0, No Iterations 0
diagonal:  Solving for T, Initial residual = 0, Final residual = 0, No Iterations 0
diagonal:  Solving for T, Initial residual = 0, Final residual = 0, No Iterations 0
diagonal:  Solving for T, Initial residual = 0, Final residual = 0, No Iterations 0
 T goes from min(T) [0 0 0 0 0 0 0] -2.50639e-07 to max(T) [0 0 0 0 0 0 0] 0.942504

ExecutionTime = 8.26 s  ClockTime = 148 s

Time = 0.49
Courant Number mean: 0.417219 max: 1.03474
diagonal:  Solving for T, Initial residual = 0, Final residual = 0, No Iterations 0
diagonal:  Solving for T, Initial residual = 0, Final residual = 0, No Iterations 0
diagonal:  Solving for T, Initial residual = 0, Final residual = 0, No Iterations 0
diagonal:  Solving for T, Initial residual = 0, Final residual = 0, No Iterations 0
 T goes from min(T) [0 0 0 0 0 0 0] -2.74e-07 to max(T) [0 0 0 0 0 0 0] 0.943199

ExecutionTime = 8.41 s  ClockTime = 153 s

Time = 0.5
Courant Number mean: 0.415666 max: 1.03441
diagonal:  Solving for T, Initial residual = 0, Final residual = 0, No Iterations 0
diagonal:  Solving for T, Initial residual = 0, Final residual = 0, No Iterations 0
diagonal:  Solving for T, Initial residual = 0, Final residual = 0, No Iterations 0
diagonal:  Solving for T, Initial residual = 0, Final residual = 0, No Iterations 0
 T goes from min(T) [0 0 0 0 0 0 0] -2.958e-07 to max(T) [0 0 0 0 0 0 0] 0.942721

ExecutionTime = 8.54 s  ClockTime = 156 s

Time = 0.51
Courant Number mean: 0.414092 max: 1.0343
diagonal:  Solving for T, Initial residual = 0, Final residual = 0, No Iterations 0
diagonal:  Solving for T, Initial residual = 0, Final residual = 0, No Iterations 0
diagonal:  Solving for T, Initial residual = 0, Final residual = 0, No Iterations 0
diagonal:  Solving for T, Initial residual = 0, Final residual = 0, No Iterations 0
 T goes from min(T) [0 0 0 0 0 0 0] -3.16329e-07 to max(T) [0 0 0 0 0 0 0] 0.942255

ExecutionTime = 8.68 s  ClockTime = 159 s

Time = 0.52
Courant Number mean: 0.412512 max: 1.03467
diagonal:  Solving for T, Initial residual = 0, Final residual = 0, No Iterations 0
diagonal:  Solving for T, Initial residual = 0, Final residual = 0, No Iterations 0
diagonal:  Solving for T, Initial residual = 0, Final residual = 0, No Iterations 0
diagonal:  Solving for T, Initial residual = 0, Final residual = 0, No Iterations 0
 T goes from min(T) [0 0 0 0 0 0 0] -8.70403e-07 to max(T) [0 0 0 0 0 0 0] 0.937929

ExecutionTime = 8.8 s  ClockTime = 161 s

Time = 0.53
Courant Number mean: 0.41094 max: 1.03477
diagonal:  Solving for T, Initial residual = 0, Final residual = 0, No Iterations 0
diagonal:  Solving for T, Initial residual = 0, Final residual = 0, No Iterations 0
diagonal:  Solving for T, Initial residual = 0, Final residual = 0, No Iterations 0
diagonal:  Solving for T, Initial residual = 0, Final residual = 0, No Iterations 0
 T goes from min(T) [0 0 0 0 0 0 0] -2.41272e-06 to max(T) [0 0 0 0 0 0 0] 0.932701

ExecutionTime = 8.94 s  ClockTime = 164 s

Time = 0.54
Courant Number mean: 0.409353 max: 1.03461
diagonal:  Solving for T, Initial residual = 0, Final residual = 0, No Iterations 0
diagonal:  Solving for T, Initial residual = 0, Final residual = 0, No Iterations 0
diagonal:  Solving for T, Initial residual = 0, Final residual = 0, No Iterations 0
diagonal:  Solving for T, Initial residual = 0, Final residual = 0, No Iterations 0
 T goes from min(T) [0 0 0 0 0 0 0] -3.87948e-06 to max(T) [0 0 0 0 0 0 0] 0.932543

ExecutionTime = 9.06 s  ClockTime = 166 s

Time = 0.55
Courant Number mean: 0.407738 max: 1.03417
diagonal:  Solving for T, Initial residual = 0, Final residual = 0, No Iterations 0
diagonal:  Solving for T, Initial residual = 0, Final residual = 0, No Iterations 0
diagonal:  Solving for T, Initial residual = 0, Final residual = 0, No Iterations 0
diagonal:  Solving for T, Initial residual = 0, Final residual = 0, No Iterations 0
 T goes from min(T) [0 0 0 0 0 0 0] -5.2417e-06 to max(T) [0 0 0 0 0 0 0] 0.931127

ExecutionTime = 9.19 s  ClockTime = 169 s

Time = 0.56
Courant Number mean: 0.406119 max: 1.03347
diagonal:  Solving for T, Initial residual = 0, Final residual = 0, No Iterations 0
diagonal:  Solving for T, Initial residual = 0, Final residual = 0, No Iterations 0
diagonal:  Solving for T, Initial residual = 0, Final residual = 0, No Iterations 0
diagonal:  Solving for T, Initial residual = 0, Final residual = 0, No Iterations 0
 T goes from min(T) [0 0 0 0 0 0 0] -6.4702e-06 to max(T) [0 0 0 0 0 0 0] 0.934724

ExecutionTime = 9.32 s  ClockTime = 171 s

Time = 0.57
Courant Number mean: 0.404515 max: 1.03269
diagonal:  Solving for T, Initial residual = 0, Final residual = 0, No Iterations 0
diagonal:  Solving for T, Initial residual = 0, Final residual = 0, No Iterations 0
diagonal:  Solving for T, Initial residual = 0, Final residual = 0, No Iterations 0
diagonal:  Solving for T, Initial residual = 0, Final residual = 0, No Iterations 0
 T goes from min(T) [0 0 0 0 0 0 0] -7.94577e-06 to max(T) [0 0 0 0 0 0 0] 0.936473

ExecutionTime = 9.45 s  ClockTime = 173 s

Time = 0.58
Courant Number mean: 0.402899 max: 1.03268
diagonal:  Solving for T, Initial residual = 0, Final residual = 0, No Iterations 0
diagonal:  Solving for T, Initial residual = 0, Final residual = 0, No Iterations 0
diagonal:  Solving for T, Initial residual = 0, Final residual = 0, No Iterations 0
diagonal:  Solving for T, Initial residual = 0, Final residual = 0, No Iterations 0
 T goes from min(T) [0 0 0 0 0 0 0] -1.03063e-05 to max(T) [0 0 0 0 0 0 0] 0.934476

ExecutionTime = 9.58 s  ClockTime = 176 s

Time = 0.59
Courant Number mean: 0.401262 max: 1.0324
diagonal:  Solving for T, Initial residual = 0, Final residual = 0, No Iterations 0
diagonal:  Solving for T, Initial residual = 0, Final residual = 0, No Iterations 0
diagonal:  Solving for T, Initial residual = 0, Final residual = 0, No Iterations 0
diagonal:  Solving for T, Initial residual = 0, Final residual = 0, No Iterations 0
 T goes from min(T) [0 0 0 0 0 0 0] -1.2327e-05 to max(T) [0 0 0 0 0 0 0] 0.931237

ExecutionTime = 9.7 s  ClockTime = 178 s

Time = 0.6
Courant Number mean: 0.399605 max: 1.03186
diagonal:  Solving for T, Initial residual = 0, Final residual = 0, No Iterations 0
diagonal:  Solving for T, Initial residual = 0, Final residual = 0, No Iterations 0
diagonal:  Solving for T, Initial residual = 0, Final residual = 0, No Iterations 0
diagonal:  Solving for T, Initial residual = 0, Final residual = 0, No Iterations 0
 T goes from min(T) [0 0 0 0 0 0 0] -1.39669e-05 to max(T) [0 0 0 0 0 0 0] 0.926012

ExecutionTime = 9.84 s  ClockTime = 181 s

Time = 0.61
Courant Number mean: 0.397961 max: 1.03105
diagonal:  Solving for T, Initial residual = 0, Final residual = 0, No Iterations 0
diagonal:  Solving for T, Initial residual = 0, Final residual = 0, No Iterations 0
diagonal:  Solving for T, Initial residual = 0, Final residual = 0, No Iterations 0
diagonal:  Solving for T, Initial residual = 0, Final residual = 0, No Iterations 0
 T goes from min(T) [0 0 0 0 0 0 0] -1.51953e-05 to max(T) [0 0 0 0 0 0 0] 0.920732

ExecutionTime = 9.97 s  ClockTime = 183 s

Time = 0.62
Courant Number mean: 0.396312 max: 1.02998
diagonal:  Solving for T, Initial residual = 0, Final residual = 0, No Iterations 0
diagonal:  Solving for T, Initial residual = 0, Final residual = 0, No Iterations 0
diagonal:  Solving for T, Initial residual = 0, Final residual = 0, No Iterations 0
diagonal:  Solving for T, Initial residual = 0, Final residual = 0, No Iterations 0
 T goes from min(T) [0 0 0 0 0 0 0] -1.614e-05 to max(T) [0 0 0 0 0 0 0] 0.92244

ExecutionTime = 10.1 s  ClockTime = 186 s

Time = 0.63
Courant Number mean: 0.394652 max: 1.02941
diagonal:  Solving for T, Initial residual = 0, Final residual = 0, No Iterations 0
diagonal:  Solving for T, Initial residual = 0, Final residual = 0, No Iterations 0
diagonal:  Solving for T, Initial residual = 0, Final residual = 0, No Iterations 0
diagonal:  Solving for T, Initial residual = 0, Final residual = 0, No Iterations 0
 T goes from min(T) [0 0 0 0 0 0 0] -1.82776e-05 to max(T) [0 0 0 0 0 0 0] 0.920833

ExecutionTime = 10.23 s  ClockTime = 188 s

Time = 0.64
Courant Number mean: 0.392971 max: 1.02865
diagonal:  Solving for T, Initial residual = 0, Final residual = 0, No Iterations 0
diagonal:  Solving for T, Initial residual = 0, Final residual = 0, No Iterations 0
diagonal:  Solving for T, Initial residual = 0, Final residual = 0, No Iterations 0
diagonal:  Solving for T, Initial residual = 0, Final residual = 0, No Iterations 0
 T goes from min(T) [0 0 0 0 0 0 0] -1.96844e-05 to max(T) [0 0 0 0 0 0 0] 0.924953

ExecutionTime = 10.36 s  ClockTime = 191 s

Time = 0.65
Courant Number mean: 0.391297 max: 1.02763
diagonal:  Solving for T, Initial residual = 0, Final residual = 0, No Iterations 0
diagonal:  Solving for T, Initial residual = 0, Final residual = 0, No Iterations 0
diagonal:  Solving for T, Initial residual = 0, Final residual = 0, No Iterations 0
diagonal:  Solving for T, Initial residual = 0, Final residual = 0, No Iterations 0
 T goes from min(T) [0 0 0 0 0 0 0] -2.03807e-05 to max(T) [0 0 0 0 0 0 0] 0.925211

ExecutionTime = 10.49 s  ClockTime = 193 s

Time = 0.66
Courant Number mean: 0.389627 max: 1.02657
diagonal:  Solving for T, Initial residual = 0, Final residual = 0, No Iterations 0
diagonal:  Solving for T, Initial residual = 0, Final residual = 0, No Iterations 0
diagonal:  Solving for T, Initial residual = 0, Final residual = 0, No Iterations 0
diagonal:  Solving for T, Initial residual = 0, Final residual = 0, No Iterations 0
 T goes from min(T) [0 0 0 0 0 0 0] -2.04102e-05 to max(T) [0 0 0 0 0 0 0] 0.924674

ExecutionTime = 10.62 s  ClockTime = 196 s

Time = 0.67
Courant Number mean: 0.387951 max: 1.02558
diagonal:  Solving for T, Initial residual = 0, Final residual = 0, No Iterations 0
diagonal:  Solving for T, Initial residual = 0, Final residual = 0, No Iterations 0
diagonal:  Solving for T, Initial residual = 0, Final residual = 0, No Iterations 0
diagonal:  Solving for T, Initial residual = 0, Final residual = 0, No Iterations 0
 T goes from min(T) [0 0 0 0 0 0 0] -2.21751e-05 to max(T) [0 0 0 0 0 0 0] 0.923603

ExecutionTime = 10.74 s  ClockTime = 198 s

Time = 0.68
Courant Number mean: 0.386264 max: 1.02498
diagonal:  Solving for T, Initial residual = 0, Final residual = 0, No Iterations 0
diagonal:  Solving for T, Initial residual = 0, Final residual = 0, No Iterations 0
diagonal:  Solving for T, Initial residual = 0, Final residual = 0, No Iterations 0
diagonal:  Solving for T, Initial residual = 0, Final residual = 0, No Iterations 0
 T goes from min(T) [0 0 0 0 0 0 0] -3.00649e-05 to max(T) [0 0 0 0 0 0 0] 0.918548

ExecutionTime = 10.87 s  ClockTime = 200 s

Time = 0.69
Courant Number mean: 0.384571 max: 1.02411
diagonal:  Solving for T, Initial residual = 0, Final residual = 0, No Iterations 0
diagonal:  Solving for T, Initial residual = 0, Final residual = 0, No Iterations 0
diagonal:  Solving for T, Initial residual = 0, Final residual = 0, No Iterations 0
diagonal:  Solving for T, Initial residual = 0, Final residual = 0, No Iterations 0
 T goes from min(T) [0 0 0 0 0 0 0] -3.75833e-05 to max(T) [0 0 0 0 0 0 0] 0.914694

ExecutionTime = 11 s  ClockTime = 203 s

Time = 0.7
Courant Number mean: 0.382882 max: 1.02299
diagonal:  Solving for T, Initial residual = 0, Final residual = 0, No Iterations 0
diagonal:  Solving for T, Initial residual = 0, Final residual = 0, No Iterations 0
diagonal:  Solving for T, Initial residual = 0, Final residual = 0, No Iterations 0
diagonal:  Solving for T, Initial residual = 0, Final residual = 0, No Iterations 0
 T goes from min(T) [0 0 0 0 0 0 0] -4.29284e-05 to max(T) [0 0 0 0 0 0 0] 0.915818

ExecutionTime = 11.12 s  ClockTime = 205 s

Time = 0.71
Courant Number mean: 0.381184 max: 1.02161
diagonal:  Solving for T, Initial residual = 0, Final residual = 0, No Iterations 0
diagonal:  Solving for T, Initial residual = 0, Final residual = 0, No Iterations 0
diagonal:  Solving for T, Initial residual = 0, Final residual = 0, No Iterations 0
diagonal:  Solving for T, Initial residual = 0, Final residual = 0, No Iterations 0
 T goes from min(T) [0 0 0 0 0 0 0] -4.66162e-05 to max(T) [0 0 0 0 0 0 0] 0.91298

ExecutionTime = 11.29 s  ClockTime = 208 s

Time = 0.72
Courant Number mean: 0.379487 max: 1.01997
diagonal:  Solving for T, Initial residual = 0, Final residual = 0, No Iterations 0
diagonal:  Solving for T, Initial residual = 0, Final residual = 0, No Iterations 0
diagonal:  Solving for T, Initial residual = 0, Final residual = 0, No Iterations 0
diagonal:  Solving for T, Initial residual = 0, Final residual = 0, No Iterations 0
 T goes from min(T) [0 0 0 0 0 0 0] -4.78862e-05 to max(T) [0 0 0 0 0 0 0] 0.913147

ExecutionTime = 11.43 s  ClockTime = 211 s

Time = 0.73
Courant Number mean: 0.377775 max: 1.0185
diagonal:  Solving for T, Initial residual = 0, Final residual = 0, No Iterations 0
diagonal:  Solving for T, Initial residual = 0, Final residual = 0, No Iterations 0
diagonal:  Solving for T, Initial residual = 0, Final residual = 0, No Iterations 0
diagonal:  Solving for T, Initial residual = 0, Final residual = 0, No Iterations 0
 T goes from min(T) [0 0 0 0 0 0 0] -6.16415e-05 to max(T) [0 0 0 0 0 0 0] 0.911602

ExecutionTime = 11.56 s  ClockTime = 214 s

Time = 0.74
Courant Number mean: 0.376076 max: 1.01753
diagonal:  Solving for T, Initial residual = 0, Final residual = 0, No Iterations 0
diagonal:  Solving for T, Initial residual = 0, Final residual = 0, No Iterations 0
diagonal:  Solving for T, Initial residual = 0, Final residual = 0, No Iterations 0
diagonal:  Solving for T, Initial residual = 0, Final residual = 0, No Iterations 0
 T goes from min(T) [0 0 0 0 0 0 0] -7.39631e-05 to max(T) [0 0 0 0 0 0 0] 0.914389

ExecutionTime = 11.69 s  ClockTime = 216 s

Time = 0.75
Courant Number mean: 0.374379 max: 1.0163
diagonal:  Solving for T, Initial residual = 0, Final residual = 0, No Iterations 0
diagonal:  Solving for T, Initial residual = 0, Final residual = 0, No Iterations 0
diagonal:  Solving for T, Initial residual = 0, Final residual = 0, No Iterations 0
diagonal:  Solving for T, Initial residual = 0, Final residual = 0, No Iterations 0
 T goes from min(T) [0 0 0 0 0 0 0] -8.20024e-05 to max(T) [0 0 0 0 0 0 0] 0.91491

ExecutionTime = 11.81 s  ClockTime = 218 s

Time = 0.76
Courant Number mean: 0.372678 max: 1.01482
diagonal:  Solving for T, Initial residual = 0, Final residual = 0, No Iterations 0
diagonal:  Solving for T, Initial residual = 0, Final residual = 0, No Iterations 0
diagonal:  Solving for T, Initial residual = 0, Final residual = 0, No Iterations 0
diagonal:  Solving for T, Initial residual = 0, Final residual = 0, No Iterations 0
 T goes from min(T) [0 0 0 0 0 0 0] -8.24908e-05 to max(T) [0 0 0 0 0 0 0] 0.913359

ExecutionTime = 11.94 s  ClockTime = 221 s

Time = 0.77
Courant Number mean: 0.370969 max: 1.01308
diagonal:  Solving for T, Initial residual = 0, Final residual = 0, No Iterations 0
diagonal:  Solving for T, Initial residual = 0, Final residual = 0, No Iterations 0
diagonal:  Solving for T, Initial residual = 0, Final residual = 0, No Iterations 0
diagonal:  Solving for T, Initial residual = 0, Final residual = 0, No Iterations 0
 T goes from min(T) [0 0 0 0 0 0 0] -8.96886e-05 to max(T) [0 0 0 0 0 0 0] 0.914279

ExecutionTime = 12.06 s  ClockTime = 223 s

Time = 0.78
Courant Number mean: 0.369259 max: 1.01109
diagonal:  Solving for T, Initial residual = 0, Final residual = 0, No Iterations 0
diagonal:  Solving for T, Initial residual = 0, Final residual = 0, No Iterations 0
diagonal:  Solving for T, Initial residual = 0, Final residual = 0, No Iterations 0
diagonal:  Solving for T, Initial residual = 0, Final residual = 0, No Iterations 0
 T goes from min(T) [0 0 0 0 0 0 0] -0.000106949 to max(T) [0 0 0 0 0 0 0] 0.915498

ExecutionTime = 12.18 s  ClockTime = 225 s

Time = 0.79
Courant Number mean: 0.367571 max: 1.00922
diagonal:  Solving for T, Initial residual = 0, Final residual = 0, No Iterations 0
diagonal:  Solving for T, Initial residual = 0, Final residual = 0, No Iterations 0
diagonal:  Solving for T, Initial residual = 0, Final residual = 0, No Iterations 0
diagonal:  Solving for T, Initial residual = 0, Final residual = 0, No Iterations 0
 T goes from min(T) [0 0 0 0 0 0 0] -0.000117576 to max(T) [0 0 0 0 0 0 0] 0.914693

ExecutionTime = 12.31 s  ClockTime = 228 s

Time = 0.8
Courant Number mean: 0.365875 max: 1.00761
diagonal:  Solving for T, Initial residual = 0, Final residual = 0, No Iterations 0
diagonal:  Solving for T, Initial residual = 0, Final residual = 0, No Iterations 0
diagonal:  Solving for T, Initial residual = 0, Final residual = 0, No Iterations 0
diagonal:  Solving for T, Initial residual = 0, Final residual = 0, No Iterations 0
 T goes from min(T) [0 0 0 0 0 0 0] -0.000324163 to max(T) [0 0 0 0 0 0 0] 0.912056

ExecutionTime = 12.44 s  ClockTime = 230 s

Time = 0.81
Courant Number mean: 0.364164 max: 1.00602
diagonal:  Solving for T, Initial residual = 0, Final residual = 0, No Iterations 0
diagonal:  Solving for T, Initial residual = 0, Final residual = 0, No Iterations 0
diagonal:  Solving for T, Initial residual = 0, Final residual = 0, No Iterations 0
diagonal:  Solving for T, Initial residual = 0, Final residual = 0, No Iterations 0
 T goes from min(T) [0 0 0 0 0 0 0] -0.000708518 to max(T) [0 0 0 0 0 0 0] 0.914092

ExecutionTime = 12.56 s  ClockTime = 232 s

Time = 0.82
Courant Number mean: 0.362459 max: 1.00419
diagonal:  Solving for T, Initial residual = 0, Final residual = 0, No Iterations 0
diagonal:  Solving for T, Initial residual = 0, Final residual = 0, No Iterations 0
diagonal:  Solving for T, Initial residual = 0, Final residual = 0, No Iterations 0
diagonal:  Solving for T, Initial residual = 0, Final residual = 0, No Iterations 0
 T goes from min(T) [0 0 0 0 0 0 0] -0.001029 to max(T) [0 0 0 0 0 0 0] 0.914414

ExecutionTime = 12.69 s  ClockTime = 234 s

Time = 0.83
Courant Number mean: 0.360779 max: 1.00211
diagonal:  Solving for T, Initial residual = 0, Final residual = 0, No Iterations 0
diagonal:  Solving for T, Initial residual = 0, Final residual = 0, No Iterations 0
diagonal:  Solving for T, Initial residual = 0, Final residual = 0, No Iterations 0
diagonal:  Solving for T, Initial residual = 0, Final residual = 0, No Iterations 0
 T goes from min(T) [0 0 0 0 0 0 0] -0.00126867 to max(T) [0 0 0 0 0 0 0] 0.91293

ExecutionTime = 12.82 s  ClockTime = 237 s

Time = 0.84
Courant Number mean: 0.359093 max: 1.0004
diagonal:  Solving for T, Initial residual = 0, Final residual = 0, No Iterations 0
diagonal:  Solving for T, Initial residual = 0, Final residual = 0, No Iterations 0
diagonal:  Solving for T, Initial residual = 0, Final residual = 0, No Iterations 0
diagonal:  Solving for T, Initial residual = 0, Final residual = 0, No Iterations 0
 T goes from min(T) [0 0 0 0 0 0 0] -0.00165603 to max(T) [0 0 0 0 0 0 0] 0.909824

ExecutionTime = 12.94 s  ClockTime = 239 s

Time = 0.85
Courant Number mean: 0.357405 max: 0.998639
diagonal:  Solving for T, Initial residual = 0, Final residual = 0, No Iterations 0
diagonal:  Solving for T, Initial residual = 0, Final residual = 0, No Iterations 0
diagonal:  Solving for T, Initial residual = 0, Final residual = 0, No Iterations 0
diagonal:  Solving for T, Initial residual = 0, Final residual = 0, No Iterations 0
 T goes from min(T) [0 0 0 0 0 0 0] -0.00211988 to max(T) [0 0 0 0 0 0 0] 0.911432

ExecutionTime = 13.06 s  ClockTime = 241 s

Time = 0.86
Courant Number mean: 0.355722 max: 0.996638
diagonal:  Solving for T, Initial residual = 0, Final residual = 0, No Iterations 0
diagonal:  Solving for T, Initial residual = 0, Final residual = 0, No Iterations 0
diagonal:  Solving for T, Initial residual = 0, Final residual = 0, No Iterations 0
diagonal:  Solving for T, Initial residual = 0, Final residual = 0, No Iterations 0
 T goes from min(T) [0 0 0 0 0 0 0] -0.00258682 to max(T) [0 0 0 0 0 0 0] 0.911445

ExecutionTime = 13.19 s  ClockTime = 243 s

Time = 0.87
Courant Number mean: 0.354045 max: 0.994395
diagonal:  Solving for T, Initial residual = 0, Final residual = 0, No Iterations 0
diagonal:  Solving for T, Initial residual = 0, Final residual = 0, No Iterations 0
diagonal:  Solving for T, Initial residual = 0, Final residual = 0, No Iterations 0
diagonal:  Solving for T, Initial residual = 0, Final residual = 0, No Iterations 0
 T goes from min(T) [0 0 0 0 0 0 0] -0.00295773 to max(T) [0 0 0 0 0 0 0] 0.90984

ExecutionTime = 13.35 s  ClockTime = 246 s

Time = 0.88
Courant Number mean: 0.352384 max: 0.991913
diagonal:  Solving for T, Initial residual = 0, Final residual = 0, No Iterations 0
diagonal:  Solving for T, Initial residual = 0, Final residual = 0, No Iterations 0
diagonal:  Solving for T, Initial residual = 0, Final residual = 0, No Iterations 0
diagonal:  Solving for T, Initial residual = 0, Final residual = 0, No Iterations 0
 T goes from min(T) [0 0 0 0 0 0 0] -0.00335275 to max(T) [0 0 0 0 0 0 0] 0.906788

ExecutionTime = 13.48 s  ClockTime = 248 s

Time = 0.89
Courant Number mean: 0.350739 max: 0.98963
diagonal:  Solving for T, Initial residual = 0, Final residual = 0, No Iterations 0
diagonal:  Solving for T, Initial residual = 0, Final residual = 0, No Iterations 0
diagonal:  Solving for T, Initial residual = 0, Final residual = 0, No Iterations 0
diagonal:  Solving for T, Initial residual = 0, Final residual = 0, No Iterations 0
 T goes from min(T) [0 0 0 0 0 0 0] -0.00365404 to max(T) [0 0 0 0 0 0 0] 0.906246

ExecutionTime = 13.63 s  ClockTime = 251 s

Time = 0.9
Courant Number mean: 0.349086 max: 0.987777
diagonal:  Solving for T, Initial residual = 0, Final residual = 0, No Iterations 0
diagonal:  Solving for T, Initial residual = 0, Final residual = 0, No Iterations 0
diagonal:  Solving for T, Initial residual = 0, Final residual = 0, No Iterations 0
diagonal:  Solving for T, Initial residual = 0, Final residual = 0, No Iterations 0
 T goes from min(T) [0 0 0 0 0 0 0] -0.00419765 to max(T) [0 0 0 0 0 0 0] 0.906445

ExecutionTime = 13.76 s  ClockTime = 253 s

Time = 0.91
Courant Number mean: 0.347429 max: 0.985686
diagonal:  Solving for T, Initial residual = 0, Final residual = 0, No Iterations 0
diagonal:  Solving for T, Initial residual = 0, Final residual = 0, No Iterations 0
diagonal:  Solving for T, Initial residual = 0, Final residual = 0, No Iterations 0
diagonal:  Solving for T, Initial residual = 0, Final residual = 0, No Iterations 0
 T goes from min(T) [0 0 0 0 0 0 0] -0.00496955 to max(T) [0 0 0 0 0 0 0] 0.905182

ExecutionTime = 13.87 s  ClockTime = 255 s

Time = 0.92
Courant Number mean: 0.345806 max: 0.983361
diagonal:  Solving for T, Initial residual = 0, Final residual = 0, No Iterations 0
diagonal:  Solving for T, Initial residual = 0, Final residual = 0, No Iterations 0
diagonal:  Solving for T, Initial residual = 0, Final residual = 0, No Iterations 0
diagonal:  Solving for T, Initial residual = 0, Final residual = 0, No Iterations 0
 T goes from min(T) [0 0 0 0 0 0 0] -0.00551111 to max(T) [0 0 0 0 0 0 0] 0.903777

ExecutionTime = 13.99 s  ClockTime = 257 s

Time = 0.93
Courant Number mean: 0.344196 max: 0.980802
diagonal:  Solving for T, Initial residual = 0, Final residual = 0, No Iterations 0
diagonal:  Solving for T, Initial residual = 0, Final residual = 0, No Iterations 0
diagonal:  Solving for T, Initial residual = 0, Final residual = 0, No Iterations 0
diagonal:  Solving for T, Initial residual = 0, Final residual = 0, No Iterations 0
 T goes from min(T) [0 0 0 0 0 0 0] -0.00579244 to max(T) [0 0 0 0 0 0 0] 0.901354

ExecutionTime = 14.1 s  ClockTime = 259 s

Time = 0.94
Courant Number mean: 0.342585 max: 0.978014
diagonal:  Solving for T, Initial residual = 0, Final residual = 0, No Iterations 0
diagonal:  Solving for T, Initial residual = 0, Final residual = 0, No Iterations 0
diagonal:  Solving for T, Initial residual = 0, Final residual = 0, No Iterations 0
diagonal:  Solving for T, Initial residual = 0, Final residual = 0, No Iterations 0
 T goes from min(T) [0 0 0 0 0 0 0] -0.00600583 to max(T) [0 0 0 0 0 0 0] 0.898835

ExecutionTime = 14.22 s  ClockTime = 261 s

Time = 0.95
Courant Number mean: 0.34098 max: 0.975078
diagonal:  Solving for T, Initial residual = 0, Final residual = 0, No Iterations 0
diagonal:  Solving for T, Initial residual = 0, Final residual = 0, No Iterations 0
diagonal:  Solving for T, Initial residual = 0, Final residual = 0, No Iterations 0
diagonal:  Solving for T, Initial residual = 0, Final residual = 0, No Iterations 0
 T goes from min(T) [0 0 0 0 0 0 0] -0.00640756 to max(T) [0 0 0 0 0 0 0] 0.8991

ExecutionTime = 14.34 s  ClockTime = 263 s

Time = 0.96
Courant Number mean: 0.339403 max: 0.97287
diagonal:  Solving for T, Initial residual = 0, Final residual = 0, No Iterations 0
diagonal:  Solving for T, Initial residual = 0, Final residual = 0, No Iterations 0
diagonal:  Solving for T, Initial residual = 0, Final residual = 0, No Iterations 0
diagonal:  Solving for T, Initial residual = 0, Final residual = 0, No Iterations 0
 T goes from min(T) [0 0 0 0 0 0 0] -0.006753 to max(T) [0 0 0 0 0 0 0] 0.900355

ExecutionTime = 14.46 s  ClockTime = 265 s

Time = 0.97
Courant Number mean: 0.337841 max: 0.970462
diagonal:  Solving for T, Initial residual = 0, Final residual = 0, No Iterations 0
diagonal:  Solving for T, Initial residual = 0, Final residual = 0, No Iterations 0
diagonal:  Solving for T, Initial residual = 0, Final residual = 0, No Iterations 0
diagonal:  Solving for T, Initial residual = 0, Final residual = 0, No Iterations 0
 T goes from min(T) [0 0 0 0 0 0 0] -0.00764914 to max(T) [0 0 0 0 0 0 0] 0.899549

ExecutionTime = 14.59 s  ClockTime = 267 s

Time = 0.98
Courant Number mean: 0.336289 max: 0.967828
diagonal:  Solving for T, Initial residual = 0, Final residual = 0, No Iterations 0
diagonal:  Solving for T, Initial residual = 0, Final residual = 0, No Iterations 0
diagonal:  Solving for T, Initial residual = 0, Final residual = 0, No Iterations 0
diagonal:  Solving for T, Initial residual = 0, Final residual = 0, No Iterations 0
 T goes from min(T) [0 0 0 0 0 0 0] -0.00828089 to max(T) [0 0 0 0 0 0 0] 0.896856

ExecutionTime = 14.7 s  ClockTime = 269 s

Time = 0.99
Courant Number mean: 0.334761 max: 0.964972
diagonal:  Solving for T, Initial residual = 0, Final residual = 0, No Iterations 0
diagonal:  Solving for T, Initial residual = 0, Final residual = 0, No Iterations 0
diagonal:  Solving for T, Initial residual = 0, Final residual = 0, No Iterations 0
diagonal:  Solving for T, Initial residual = 0, Final residual = 0, No Iterations 0
 T goes from min(T) [0 0 0 0 0 0 0] -0.00882084 to max(T) [0 0 0 0 0 0 0] 0.892461

ExecutionTime = 14.82 s  ClockTime = 271 s

Time = 1
Courant Number mean: 0.333235 max: 0.961896
diagonal:  Solving for T, Initial residual = 0, Final residual = 0, No Iterations 0
diagonal:  Solving for T, Initial residual = 0, Final residual = 0, No Iterations 0
diagonal:  Solving for T, Initial residual = 0, Final residual = 0, No Iterations 0
diagonal:  Solving for T, Initial residual = 0, Final residual = 0, No Iterations 0
 T goes from min(T) [0 0 0 0 0 0 0] -0.00917841 to max(T) [0 0 0 0 0 0 0] 0.892001

ExecutionTime = 14.95 s  ClockTime = 273 s

Time = 1.01
Courant Number mean: 0.331742 max: 0.958603
diagonal:  Solving for T, Initial residual = 0, Final residual = 0, No Iterations 0
diagonal:  Solving for T, Initial residual = 0, Final residual = 0, No Iterations 0
diagonal:  Solving for T, Initial residual = 0, Final residual = 0, No Iterations 0
diagonal:  Solving for T, Initial residual = 0, Final residual = 0, No Iterations 0
 T goes from min(T) [0 0 0 0 0 0 0] -0.00979772 to max(T) [0 0 0 0 0 0 0] 0.893198

ExecutionTime = 15.08 s  ClockTime = 275 s

Time = 1.02
Courant Number mean: 0.33028 max: 0.955096
diagonal:  Solving for T, Initial residual = 0, Final residual = 0, No Iterations 0
diagonal:  Solving for T, Initial residual = 0, Final residual = 0, No Iterations 0
diagonal:  Solving for T, Initial residual = 0, Final residual = 0, No Iterations 0
diagonal:  Solving for T, Initial residual = 0, Final residual = 0, No Iterations 0
 T goes from min(T) [0 0 0 0 0 0 0] -0.00980961 to max(T) [0 0 0 0 0 0 0] 0.892624

ExecutionTime = 15.2 s  ClockTime = 277 s

Time = 1.03
Courant Number mean: 0.328833 max: 0.951381
diagonal:  Solving for T, Initial residual = 0, Final residual = 0, No Iterations 0
diagonal:  Solving for T, Initial residual = 0, Final residual = 0, No Iterations 0
diagonal:  Solving for T, Initial residual = 0, Final residual = 0, No Iterations 0
diagonal:  Solving for T, Initial residual = 0, Final residual = 0, No Iterations 0
 T goes from min(T) [0 0 0 0 0 0 0] -0.0108459 to max(T) [0 0 0 0 0 0 0] 0.890457

ExecutionTime = 15.32 s  ClockTime = 279 s

Time = 1.04
Courant Number mean: 0.327403 max: 0.947459
diagonal:  Solving for T, Initial residual = 0, Final residual = 0, No Iterations 0
diagonal:  Solving for T, Initial residual = 0, Final residual = 0, No Iterations 0
diagonal:  Solving for T, Initial residual = 0, Final residual = 0, No Iterations 0
diagonal:  Solving for T, Initial residual = 0, Final residual = 0, No Iterations 0
 T goes from min(T) [0 0 0 0 0 0 0] -0.0116224 to max(T) [0 0 0 0 0 0 0] 0.886852

ExecutionTime = 15.44 s  ClockTime = 281 s

Time = 1.05
Courant Number mean: 0.326 max: 0.943335
diagonal:  Solving for T, Initial residual = 0, Final residual = 0, No Iterations 0
diagonal:  Solving for T, Initial residual = 0, Final residual = 0, No Iterations 0
diagonal:  Solving for T, Initial residual = 0, Final residual = 0, No Iterations 0
diagonal:  Solving for T, Initial residual = 0, Final residual = 0, No Iterations 0
 T goes from min(T) [0 0 0 0 0 0 0] -0.0129368 to max(T) [0 0 0 0 0 0 0] 0.884124

ExecutionTime = 15.57 s  ClockTime = 284 s

Time = 1.06
Courant Number mean: 0.324644 max: 0.939012
diagonal:  Solving for T, Initial residual = 0, Final residual = 0, No Iterations 0
diagonal:  Solving for T, Initial residual = 0, Final residual = 0, No Iterations 0
diagonal:  Solving for T, Initial residual = 0, Final residual = 0, No Iterations 0
diagonal:  Solving for T, Initial residual = 0, Final residual = 0, No Iterations 0
 T goes from min(T) [0 0 0 0 0 0 0] -0.0134121 to max(T) [0 0 0 0 0 0 0] 0.886315

ExecutionTime = 15.74 s  ClockTime = 286 s

Time = 1.07
Courant Number mean: 0.323331 max: 0.934496
diagonal:  Solving for T, Initial residual = 0, Final residual = 0, No Iterations 0
diagonal:  Solving for T, Initial residual = 0, Final residual = 0, No Iterations 0
diagonal:  Solving for T, Initial residual = 0, Final residual = 0, No Iterations 0
diagonal:  Solving for T, Initial residual = 0, Final residual = 0, No Iterations 0
 T goes from min(T) [0 0 0 0 0 0 0] -0.0149399 to max(T) [0 0 0 0 0 0 0] 0.886329

ExecutionTime = 15.88 s  ClockTime = 289 s

Time = 1.08
Courant Number mean: 0.322065 max: 0.92979
diagonal:  Solving for T, Initial residual = 0, Final residual = 0, No Iterations 0
diagonal:  Solving for T, Initial residual = 0, Final residual = 0, No Iterations 0
diagonal:  Solving for T, Initial residual = 0, Final residual = 0, No Iterations 0
diagonal:  Solving for T, Initial residual = 0, Final residual = 0, No Iterations 0
 T goes from min(T) [0 0 0 0 0 0 0] -0.0151018 to max(T) [0 0 0 0 0 0 0] 0.88433

ExecutionTime = 16.04 s  ClockTime = 292 s

Time = 1.09
Courant Number mean: 0.32084 max: 0.924898
diagonal:  Solving for T, Initial residual = 0, Final residual = 0, No Iterations 0
diagonal:  Solving for T, Initial residual = 0, Final residual = 0, No Iterations 0
diagonal:  Solving for T, Initial residual = 0, Final residual = 0, No Iterations 0
diagonal:  Solving for T, Initial residual = 0, Final residual = 0, No Iterations 0
 T goes from min(T) [0 0 0 0 0 0 0] -0.0171396 to max(T) [0 0 0 0 0 0 0] 0.882336

ExecutionTime = 16.16 s  ClockTime = 294 s

Time = 1.1
Courant Number mean: 0.31966 max: 0.919826
diagonal:  Solving for T, Initial residual = 0, Final residual = 0, No Iterations 0
diagonal:  Solving for T, Initial residual = 0, Final residual = 0, No Iterations 0
diagonal:  Solving for T, Initial residual = 0, Final residual = 0, No Iterations 0
diagonal:  Solving for T, Initial residual = 0, Final residual = 0, No Iterations 0
 T goes from min(T) [0 0 0 0 0 0 0] -0.016768 to max(T) [0 0 0 0 0 0 0] 0.87934

ExecutionTime = 16.31 s  ClockTime = 296 s

Time = 1.11
Courant Number mean: 0.318525 max: 0.914577
diagonal:  Solving for T, Initial residual = 0, Final residual = 0, No Iterations 0
diagonal:  Solving for T, Initial residual = 0, Final residual = 0, No Iterations 0
diagonal:  Solving for T, Initial residual = 0, Final residual = 0, No Iterations 0
diagonal:  Solving for T, Initial residual = 0, Final residual = 0, No Iterations 0
 T goes from min(T) [0 0 0 0 0 0 0] -0.0180858 to max(T) [0 0 0 0 0 0 0] 0.875979

ExecutionTime = 16.44 s  ClockTime = 298 s

Time = 1.12
Courant Number mean: 0.317453 max: 0.909215
diagonal:  Solving for T, Initial residual = 0, Final residual = 0, No Iterations 0
diagonal:  Solving for T, Initial residual = 0, Final residual = 0, No Iterations 0
diagonal:  Solving for T, Initial residual = 0, Final residual = 0, No Iterations 0
diagonal:  Solving for T, Initial residual = 0, Final residual = 0, No Iterations 0
 T goes from min(T) [0 0 0 0 0 0 0] -0.0190356 to max(T) [0 0 0 0 0 0 0] 0.876132

ExecutionTime = 16.56 s  ClockTime = 300 s

Time = 1.13
Courant Number mean: 0.31642 max: 0.90391
diagonal:  Solving for T, Initial residual = 0, Final residual = 0, No Iterations 0
diagonal:  Solving for T, Initial residual = 0, Final residual = 0, No Iterations 0
diagonal:  Solving for T, Initial residual = 0, Final residual = 0, No Iterations 0
diagonal:  Solving for T, Initial residual = 0, Final residual = 0, No Iterations 0
 T goes from min(T) [0 0 0 0 0 0 0] -0.0179933 to max(T) [0 0 0 0 0 0 0] 0.875785

ExecutionTime = 16.68 s  ClockTime = 303 s

Time = 1.14
Courant Number mean: 0.315413 max: 0.898441
diagonal:  Solving for T, Initial residual = 0, Final residual = 0, No Iterations 0
diagonal:  Solving for T, Initial residual = 0, Final residual = 0, No Iterations 0
diagonal:  Solving for T, Initial residual = 0, Final residual = 0, No Iterations 0
diagonal:  Solving for T, Initial residual = 0, Final residual = 0, No Iterations 0
 T goes from min(T) [0 0 0 0 0 0 0] -0.0191747 to max(T) [0 0 0 0 0 0 0] 0.87415

ExecutionTime = 16.81 s  ClockTime = 305 s

Time = 1.15
Courant Number mean: 0.314481 max: 0.892815
diagonal:  Solving for T, Initial residual = 0, Final residual = 0, No Iterations 0
diagonal:  Solving for T, Initial residual = 0, Final residual = 0, No Iterations 0
diagonal:  Solving for T, Initial residual = 0, Final residual = 0, No Iterations 0
diagonal:  Solving for T, Initial residual = 0, Final residual = 0, No Iterations 0
 T goes from min(T) [0 0 0 0 0 0 0] -0.020245 to max(T) [0 0 0 0 0 0 0] 0.873596

ExecutionTime = 16.94 s  ClockTime = 307 s

Time = 1.16
Courant Number mean: 0.313604 max: 0.887034
diagonal:  Solving for T, Initial residual = 0, Final residual = 0, No Iterations 0
diagonal:  Solving for T, Initial residual = 0, Final residual = 0, No Iterations 0
diagonal:  Solving for T, Initial residual = 0, Final residual = 0, No Iterations 0
diagonal:  Solving for T, Initial residual = 0, Final residual = 0, No Iterations 0
 T goes from min(T) [0 0 0 0 0 0 0] -0.0194898 to max(T) [0 0 0 0 0 0 0] 0.871199

ExecutionTime = 17.06 s  ClockTime = 309 s

Time = 1.17
Courant Number mean: 0.312765 max: 0.881106
diagonal:  Solving for T, Initial residual = 0, Final residual = 0, No Iterations 0
diagonal:  Solving for T, Initial residual = 0, Final residual = 0, No Iterations 0
diagonal:  Solving for T, Initial residual = 0, Final residual = 0, No Iterations 0
diagonal:  Solving for T, Initial residual = 0, Final residual = 0, No Iterations 0
 T goes from min(T) [0 0 0 0 0 0 0] -0.0181994 to max(T) [0 0 0 0 0 0 0] 0.869734

ExecutionTime = 17.18 s  ClockTime = 311 s

Time = 1.18
Courant Number mean: 0.311959 max: 0.875035
diagonal:  Solving for T, Initial residual = 0, Final residual = 0, No Iterations 0
diagonal:  Solving for T, Initial residual = 0, Final residual = 0, No Iterations 0
diagonal:  Solving for T, Initial residual = 0, Final residual = 0, No Iterations 0
diagonal:  Solving for T, Initial residual = 0, Final residual = 0, No Iterations 0
 T goes from min(T) [0 0 0 0 0 0 0] -0.020318 to max(T) [0 0 0 0 0 0 0] 0.869747

ExecutionTime = 17.29 s  ClockTime = 313 s

Time = 1.19
Courant Number mean: 0.311203 max: 0.868826
diagonal:  Solving for T, Initial residual = 0, Final residual = 0, No Iterations 0
diagonal:  Solving for T, Initial residual = 0, Final residual = 0, No Iterations 0
diagonal:  Solving for T, Initial residual = 0, Final residual = 0, No Iterations 0
diagonal:  Solving for T, Initial residual = 0, Final residual = 0, No Iterations 0
 T goes from min(T) [0 0 0 0 0 0 0] -0.0207233 to max(T) [0 0 0 0 0 0 0] 0.869532

ExecutionTime = 17.41 s  ClockTime = 315 s

Time = 1.2
Courant Number mean: 0.310527 max: 0.862485
diagonal:  Solving for T, Initial residual = 0, Final residual = 0, No Iterations 0
diagonal:  Solving for T, Initial residual = 0, Final residual = 0, No Iterations 0
diagonal:  Solving for T, Initial residual = 0, Final residual = 0, No Iterations 0
diagonal:  Solving for T, Initial residual = 0, Final residual = 0, No Iterations 0
 T goes from min(T) [0 0 0 0 0 0 0] -0.0203861 to max(T) [0 0 0 0 0 0 0] 0.869322

ExecutionTime = 17.54 s  ClockTime = 317 s

Time = 1.21
Courant Number mean: 0.309883 max: 0.856017
diagonal:  Solving for T, Initial residual = 0, Final residual = 0, No Iterations 0
diagonal:  Solving for T, Initial residual = 0, Final residual = 0, No Iterations 0
diagonal:  Solving for T, Initial residual = 0, Final residual = 0, No Iterations 0
diagonal:  Solving for T, Initial residual = 0, Final residual = 0, No Iterations 0
 T goes from min(T) [0 0 0 0 0 0 0] -0.0207978 to max(T) [0 0 0 0 0 0 0] 0.868976

ExecutionTime = 17.66 s  ClockTime = 319 s

Time = 1.22
Courant Number mean: 0.309282 max: 0.849428
diagonal:  Solving for T, Initial residual = 0, Final residual = 0, No Iterations 0
diagonal:  Solving for T, Initial residual = 0, Final residual = 0, No Iterations 0
diagonal:  Solving for T, Initial residual = 0, Final residual = 0, No Iterations 0
diagonal:  Solving for T, Initial residual = 0, Final residual = 0, No Iterations 0
 T goes from min(T) [0 0 0 0 0 0 0] -0.021308 to max(T) [0 0 0 0 0 0 0] 0.868436

ExecutionTime = 17.78 s  ClockTime = 321 s

Time = 1.23
Courant Number mean: 0.308739 max: 0.842723
diagonal:  Solving for T, Initial residual = 0, Final residual = 0, No Iterations 0
diagonal:  Solving for T, Initial residual = 0, Final residual = 0, No Iterations 0
diagonal:  Solving for T, Initial residual = 0, Final residual = 0, No Iterations 0
diagonal:  Solving for T, Initial residual = 0, Final residual = 0, No Iterations 0
 T goes from min(T) [0 0 0 0 0 0 0] -0.0217993 to max(T) [0 0 0 0 0 0 0] 0.867633

ExecutionTime = 17.91 s  ClockTime = 323 s

Time = 1.24
Courant Number mean: 0.308232 max: 0.835909
diagonal:  Solving for T, Initial residual = 0, Final residual = 0, No Iterations 0
diagonal:  Solving for T, Initial residual = 0, Final residual = 0, No Iterations 0
diagonal:  Solving for T, Initial residual = 0, Final residual = 0, No Iterations 0
diagonal:  Solving for T, Initial residual = 0, Final residual = 0, No Iterations 0
 T goes from min(T) [0 0 0 0 0 0 0] -0.0219246 to max(T) [0 0 0 0 0 0 0] 0.866495

ExecutionTime = 18.04 s  ClockTime = 326 s

Time = 1.25
Courant Number mean: 0.307782 max: 0.82899
diagonal:  Solving for T, Initial residual = 0, Final residual = 0, No Iterations 0
diagonal:  Solving for T, Initial residual = 0, Final residual = 0, No Iterations 0
diagonal:  Solving for T, Initial residual = 0, Final residual = 0, No Iterations 0
diagonal:  Solving for T, Initial residual = 0, Final residual = 0, No Iterations 0
 T goes from min(T) [0 0 0 0 0 0 0] -0.0216524 to max(T) [0 0 0 0 0 0 0] 0.864938

ExecutionTime = 18.17 s  ClockTime = 328 s

Time = 1.26
Courant Number mean: 0.307377 max: 0.830396
diagonal:  Solving for T, Initial residual = 0, Final residual = 0, No Iterations 0
diagonal:  Solving for T, Initial residual = 0, Final residual = 0, No Iterations 0
diagonal:  Solving for T, Initial residual = 0, Final residual = 0, No Iterations 0
diagonal:  Solving for T, Initial residual = 0, Final residual = 0, No Iterations 0
 T goes from min(T) [0 0 0 0 0 0 0] -0.0209563 to max(T) [0 0 0 0 0 0 0] 0.862868

ExecutionTime = 18.29 s  ClockTime = 330 s

Time = 1.27
Courant Number mean: 0.307033 max: 0.831596
diagonal:  Solving for T, Initial residual = 0, Final residual = 0, No Iterations 0
diagonal:  Solving for T, Initial residual = 0, Final residual = 0, No Iterations 0
diagonal:  Solving for T, Initial residual = 0, Final residual = 0, No Iterations 0
diagonal:  Solving for T, Initial residual = 0, Final residual = 0, No Iterations 0
 T goes from min(T) [0 0 0 0 0 0 0] -0.0218298 to max(T) [0 0 0 0 0 0 0] 0.860196

ExecutionTime = 18.41 s  ClockTime = 332 s

Time = 1.28
Courant Number mean: 0.30672 max: 0.832591
diagonal:  Solving for T, Initial residual = 0, Final residual = 0, No Iterations 0
diagonal:  Solving for T, Initial residual = 0, Final residual = 0, No Iterations 0
diagonal:  Solving for T, Initial residual = 0, Final residual = 0, No Iterations 0
diagonal:  Solving for T, Initial residual = 0, Final residual = 0, No Iterations 0
 T goes from min(T) [0 0 0 0 0 0 0] -0.0219459 to max(T) [0 0 0 0 0 0 0] 0.856829

ExecutionTime = 18.54 s  ClockTime = 334 s

Time = 1.29
Courant Number mean: 0.306445 max: 0.83338
diagonal:  Solving for T, Initial residual = 0, Final residual = 0, No Iterations 0
diagonal:  Solving for T, Initial residual = 0, Final residual = 0, No Iterations 0
diagonal:  Solving for T, Initial residual = 0, Final residual = 0, No Iterations 0
diagonal:  Solving for T, Initial residual = 0, Final residual = 0, No Iterations 0
 T goes from min(T) [0 0 0 0 0 0 0] -0.0230814 to max(T) [0 0 0 0 0 0 0] 0.852671

ExecutionTime = 18.65 s  ClockTime = 336 s

Time = 1.3
Courant Number mean: 0.306247 max: 0.833963
diagonal:  Solving for T, Initial residual = 0, Final residual = 0, No Iterations 0
diagonal:  Solving for T, Initial residual = 0, Final residual = 0, No Iterations 0
diagonal:  Solving for T, Initial residual = 0, Final residual = 0, No Iterations 0
diagonal:  Solving for T, Initial residual = 0, Final residual = 0, No Iterations 0
 T goes from min(T) [0 0 0 0 0 0 0] -0.0234533 to max(T) [0 0 0 0 0 0 0] 0.853471

ExecutionTime = 18.77 s  ClockTime = 338 s

Time = 1.31
Courant Number mean: 0.306098 max: 0.834342
diagonal:  Solving for T, Initial residual = 0, Final residual = 0, No Iterations 0
diagonal:  Solving for T, Initial residual = 0, Final residual = 0, No Iterations 0
diagonal:  Solving for T, Initial residual = 0, Final residual = 0, No Iterations 0
diagonal:  Solving for T, Initial residual = 0, Final residual = 0, No Iterations 0
 T goes from min(T) [0 0 0 0 0 0 0] -0.0241381 to max(T) [0 0 0 0 0 0 0] 0.855741

ExecutionTime = 18.92 s  ClockTime = 341 s

Time = 1.32
Courant Number mean: 0.305977 max: 0.834516
diagonal:  Solving for T, Initial residual = 0, Final residual = 0, No Iterations 0
diagonal:  Solving for T, Initial residual = 0, Final residual = 0, No Iterations 0
diagonal:  Solving for T, Initial residual = 0, Final residual = 0, No Iterations 0
diagonal:  Solving for T, Initial residual = 0, Final residual = 0, No Iterations 0
 T goes from min(T) [0 0 0 0 0 0 0] -0.0254817 to max(T) [0 0 0 0 0 0 0] 0.856789

ExecutionTime = 19.05 s  ClockTime = 343 s

Time = 1.33
Courant Number mean: 0.305892 max: 0.834485
diagonal:  Solving for T, Initial residual = 0, Final residual = 0, No Iterations 0
diagonal:  Solving for T, Initial residual = 0, Final residual = 0, No Iterations 0
diagonal:  Solving for T, Initial residual = 0, Final residual = 0, No Iterations 0
diagonal:  Solving for T, Initial residual = 0, Final residual = 0, No Iterations 0
 T goes from min(T) [0 0 0 0 0 0 0] -0.0257321 to max(T) [0 0 0 0 0 0 0] 0.856445

ExecutionTime = 19.18 s  ClockTime = 345 s

Time = 1.34
Courant Number mean: 0.305875 max: 0.834252
diagonal:  Solving for T, Initial residual = 0, Final residual = 0, No Iterations 0
diagonal:  Solving for T, Initial residual = 0, Final residual = 0, No Iterations 0
diagonal:  Solving for T, Initial residual = 0, Final residual = 0, No Iterations 0
diagonal:  Solving for T, Initial residual = 0, Final residual = 0, No Iterations 0
 T goes from min(T) [0 0 0 0 0 0 0] -0.0267975 to max(T) [0 0 0 0 0 0 0] 0.854534

ExecutionTime = 19.3 s  ClockTime = 347 s

Time = 1.35
Courant Number mean: 0.305901 max: 0.833816
diagonal:  Solving for T, Initial residual = 0, Final residual = 0, No Iterations 0
diagonal:  Solving for T, Initial residual = 0, Final residual = 0, No Iterations 0
diagonal:  Solving for T, Initial residual = 0, Final residual = 0, No Iterations 0
diagonal:  Solving for T, Initial residual = 0, Final residual = 0, No Iterations 0
 T goes from min(T) [0 0 0 0 0 0 0] -0.0275671 to max(T) [0 0 0 0 0 0 0] 0.850889

ExecutionTime = 19.43 s  ClockTime = 349 s

Time = 1.36
Courant Number mean: 0.305964 max: 0.83318
diagonal:  Solving for T, Initial residual = 0, Final residual = 0, No Iterations 0
diagonal:  Solving for T, Initial residual = 0, Final residual = 0, No Iterations 0
diagonal:  Solving for T, Initial residual = 0, Final residual = 0, No Iterations 0
diagonal:  Solving for T, Initial residual = 0, Final residual = 0, No Iterations 0
 T goes from min(T) [0 0 0 0 0 0 0] -0.0276012 to max(T) [0 0 0 0 0 0 0] 0.849567

ExecutionTime = 19.56 s  ClockTime = 351 s

Time = 1.37
Courant Number mean: 0.306072 max: 0.832344
diagonal:  Solving for T, Initial residual = 0, Final residual = 0, No Iterations 0
diagonal:  Solving for T, Initial residual = 0, Final residual = 0, No Iterations 0
diagonal:  Solving for T, Initial residual = 0, Final residual = 0, No Iterations 0
diagonal:  Solving for T, Initial residual = 0, Final residual = 0, No Iterations 0
 T goes from min(T) [0 0 0 0 0 0 0] -0.0294244 to max(T) [0 0 0 0 0 0 0] 0.849731

ExecutionTime = 19.68 s  ClockTime = 354 s

Time = 1.38
Courant Number mean: 0.306225 max: 0.83131
diagonal:  Solving for T, Initial residual = 0, Final residual = 0, No Iterations 0
diagonal:  Solving for T, Initial residual = 0, Final residual = 0, No Iterations 0
diagonal:  Solving for T, Initial residual = 0, Final residual = 0, No Iterations 0
diagonal:  Solving for T, Initial residual = 0, Final residual = 0, No Iterations 0
 T goes from min(T) [0 0 0 0 0 0 0] -0.0298752 to max(T) [0 0 0 0 0 0 0] 0.848791

ExecutionTime = 19.81 s  ClockTime = 356 s

Time = 1.39
Courant Number mean: 0.3064 max: 0.830104
diagonal:  Solving for T, Initial residual = 0, Final residual = 0, No Iterations 0
diagonal:  Solving for T, Initial residual = 0, Final residual = 0, No Iterations 0
diagonal:  Solving for T, Initial residual = 0, Final residual = 0, No Iterations 0
diagonal:  Solving for T, Initial residual = 0, Final residual = 0, No Iterations 0
 T goes from min(T) [0 0 0 0 0 0 0] -0.0292843 to max(T) [0 0 0 0 0 0 0] 0.846604

ExecutionTime = 19.94 s  ClockTime = 358 s

Time = 1.4
Courant Number mean: 0.306624 max: 0.828902
diagonal:  Solving for T, Initial residual = 0, Final residual = 0, No Iterations 0
diagonal:  Solving for T, Initial residual = 0, Final residual = 0, No Iterations 0
diagonal:  Solving for T, Initial residual = 0, Final residual = 0, No Iterations 0
diagonal:  Solving for T, Initial residual = 0, Final residual = 0, No Iterations 0
 T goes from min(T) [0 0 0 0 0 0 0] -0.0320952 to max(T) [0 0 0 0 0 0 0] 0.843025

ExecutionTime = 20.06 s  ClockTime = 360 s

Time = 1.41
Courant Number mean: 0.306903 max: 0.827503
diagonal:  Solving for T, Initial residual = 0, Final residual = 0, No Iterations 0
diagonal:  Solving for T, Initial residual = 0, Final residual = 0, No Iterations 0
diagonal:  Solving for T, Initial residual = 0, Final residual = 0, No Iterations 0
diagonal:  Solving for T, Initial residual = 0, Final residual = 0, No Iterations 0
 T goes from min(T) [0 0 0 0 0 0 0] -0.0322061 to max(T) [0 0 0 0 0 0 0] 0.840091

ExecutionTime = 20.18 s  ClockTime = 362 s

Time = 1.42
Courant Number mean: 0.307211 max: 0.825908
diagonal:  Solving for T, Initial residual = 0, Final residual = 0, No Iterations 0
diagonal:  Solving for T, Initial residual = 0, Final residual = 0, No Iterations 0
diagonal:  Solving for T, Initial residual = 0, Final residual = 0, No Iterations 0
diagonal:  Solving for T, Initial residual = 0, Final residual = 0, No Iterations 0
 T goes from min(T) [0 0 0 0 0 0 0] -0.0316953 to max(T) [0 0 0 0 0 0 0] 0.842681

ExecutionTime = 20.3 s  ClockTime = 363 s

Time = 1.43
Courant Number mean: 0.307543 max: 0.824121
diagonal:  Solving for T, Initial residual = 0, Final residual = 0, No Iterations 0
diagonal:  Solving for T, Initial residual = 0, Final residual = 0, No Iterations 0
diagonal:  Solving for T, Initial residual = 0, Final residual = 0, No Iterations 0
diagonal:  Solving for T, Initial residual = 0, Final residual = 0, No Iterations 0
 T goes from min(T) [0 0 0 0 0 0 0] -0.0346542 to max(T) [0 0 0 0 0 0 0] 0.843018

ExecutionTime = 20.41 s  ClockTime = 365 s

Time = 1.44
Courant Number mean: 0.307903 max: 0.822144
diagonal:  Solving for T, Initial residual = 0, Final residual = 0, No Iterations 0
diagonal:  Solving for T, Initial residual = 0, Final residual = 0, No Iterations 0
diagonal:  Solving for T, Initial residual = 0, Final residual = 0, No Iterations 0
diagonal:  Solving for T, Initial residual = 0, Final residual = 0, No Iterations 0
 T goes from min(T) [0 0 0 0 0 0 0] -0.0347183 to max(T) [0 0 0 0 0 0 0] 0.840886

ExecutionTime = 20.53 s  ClockTime = 367 s

Time = 1.45
Courant Number mean: 0.308304 max: 0.819979
diagonal:  Solving for T, Initial residual = 0, Final residual = 0, No Iterations 0
diagonal:  Solving for T, Initial residual = 0, Final residual = 0, No Iterations 0
diagonal:  Solving for T, Initial residual = 0, Final residual = 0, No Iterations 0
diagonal:  Solving for T, Initial residual = 0, Final residual = 0, No Iterations 0
 T goes from min(T) [0 0 0 0 0 0 0] -0.0334618 to max(T) [0 0 0 0 0 0 0] 0.836313

ExecutionTime = 20.66 s  ClockTime = 369 s

Time = 1.46
Courant Number mean: 0.308728 max: 0.81763
diagonal:  Solving for T, Initial residual = 0, Final residual = 0, No Iterations 0
diagonal:  Solving for T, Initial residual = 0, Final residual = 0, No Iterations 0
diagonal:  Solving for T, Initial residual = 0, Final residual = 0, No Iterations 0
diagonal:  Solving for T, Initial residual = 0, Final residual = 0, No Iterations 0
 T goes from min(T) [0 0 0 0 0 0 0] -0.0372564 to max(T) [0 0 0 0 0 0 0] 0.83214

ExecutionTime = 20.8 s  ClockTime = 372 s

Time = 1.47
Courant Number mean: 0.309177 max: 0.815098
diagonal:  Solving for T, Initial residual = 0, Final residual = 0, No Iterations 0
diagonal:  Solving for T, Initial residual = 0, Final residual = 0, No Iterations 0
diagonal:  Solving for T, Initial residual = 0, Final residual = 0, No Iterations 0
diagonal:  Solving for T, Initial residual = 0, Final residual = 0, No Iterations 0
 T goes from min(T) [0 0 0 0 0 0 0] -0.0372515 to max(T) [0 0 0 0 0 0 0] 0.83352

ExecutionTime = 20.93 s  ClockTime = 374 s

Time = 1.48
Courant Number mean: 0.309657 max: 0.812388
diagonal:  Solving for T, Initial residual = 0, Final residual = 0, No Iterations 0
diagonal:  Solving for T, Initial residual = 0, Final residual = 0, No Iterations 0
diagonal:  Solving for T, Initial residual = 0, Final residual = 0, No Iterations 0
diagonal:  Solving for T, Initial residual = 0, Final residual = 0, No Iterations 0
 T goes from min(T) [0 0 0 0 0 0 0] -0.0361719 to max(T) [0 0 0 0 0 0 0] 0.83264

ExecutionTime = 21.06 s  ClockTime = 376 s

Time = 1.49
Courant Number mean: 0.310149 max: 0.809502
diagonal:  Solving for T, Initial residual = 0, Final residual = 0, No Iterations 0
diagonal:  Solving for T, Initial residual = 0, Final residual = 0, No Iterations 0
diagonal:  Solving for T, Initial residual = 0, Final residual = 0, No Iterations 0
diagonal:  Solving for T, Initial residual = 0, Final residual = 0, No Iterations 0
 T goes from min(T) [0 0 0 0 0 0 0] -0.0395318 to max(T) [0 0 0 0 0 0 0] 0.833396

ExecutionTime = 21.18 s  ClockTime = 378 s

Time = 1.5
Courant Number mean: 0.310666 max: 0.806444
diagonal:  Solving for T, Initial residual = 0, Final residual = 0, No Iterations 0
diagonal:  Solving for T, Initial residual = 0, Final residual = 0, No Iterations 0
diagonal:  Solving for T, Initial residual = 0, Final residual = 0, No Iterations 0
diagonal:  Solving for T, Initial residual = 0, Final residual = 0, No Iterations 0
 T goes from min(T) [0 0 0 0 0 0 0] -0.0402417 to max(T) [0 0 0 0 0 0 0] 0.830448

ExecutionTime = 21.3 s  ClockTime = 380 s

Time = 1.51
Courant Number mean: 0.311216 max: 0.803217
diagonal:  Solving for T, Initial residual = 0, Final residual = 0, No Iterations 0
diagonal:  Solving for T, Initial residual = 0, Final residual = 0, No Iterations 0
diagonal:  Solving for T, Initial residual = 0, Final residual = 0, No Iterations 0
diagonal:  Solving for T, Initial residual = 0, Final residual = 0, No Iterations 0
 T goes from min(T) [0 0 0 0 0 0 0] -0.0391123 to max(T) [0 0 0 0 0 0 0] 0.833082

ExecutionTime = 21.42 s  ClockTime = 382 s

Time = 1.52
Courant Number mean: 0.311783 max: 0.799825
diagonal:  Solving for T, Initial residual = 0, Final residual = 0, No Iterations 0
diagonal:  Solving for T, Initial residual = 0, Final residual = 0, No Iterations 0
diagonal:  Solving for T, Initial residual = 0, Final residual = 0, No Iterations 0
[...]
diagonal:  Solving for T, Initial residual = 0, Final residual = 0, No Iterations 0
diagonal:  Solving for T, Initial residual = 0, Final residual = 0, No Iterations 0
 T goes from min(T) [0 0 0 0 0 0 0] -0.108397 to max(T) [0 0 0 0 0 0 0] 0.605408

ExecutionTime = 75.01 s  ClockTime = 1206 s

Time = 5.63
Courant Number mean: 0.395914 max: 1.02831
diagonal:  Solving for T, Initial residual = 0, Final residual = 0, No Iterations 0
diagonal:  Solving for T, Initial residual = 0, Final residual = 0, No Iterations 0
diagonal:  Solving for T, Initial residual = 0, Final residual = 0, No Iterations 0
diagonal:  Solving for T, Initial residual = 0, Final residual = 0, No Iterations 0
 T goes from min(T) [0 0 0 0 0 0 0] -0.108605 to max(T) [0 0 0 0 0 0 0] 0.604341

ExecutionTime = 75.14 s  ClockTime = 1208 s

Time = 5.64
Courant Number mean: 0.396765 max: 1.02603
diagonal:  Solving for T, Initial residual = 0, Final residual = 0, No Iterations 0
diagonal:  Solving for T, Initial residual = 0, Final residual = 0, No Iterations 0
diagonal:  Solving for T, Initial residual = 0, Final residual = 0, No Iterations 0
diagonal:  Solving for T, Initial residual = 0, Final residual = 0, No Iterations 0
 T goes from min(T) [0 0 0 0 0 0 0] -0.10841 to max(T) [0 0 0 0 0 0 0] 0.605497

ExecutionTime = 75.27 s  ClockTime = 1210 s

Time = 5.65
Courant Number mean: 0.397614 max: 1.02351
diagonal:  Solving for T, Initial residual = 0, Final residual = 0, No Iterations 0
diagonal:  Solving for T, Initial residual = 0, Final residual = 0, No Iterations 0
diagonal:  Solving for T, Initial residual = 0, Final residual = 0, No Iterations 0
diagonal:  Solving for T, Initial residual = 0, Final residual = 0, No Iterations 0
 T goes from min(T) [0 0 0 0 0 0 0] -0.107831 to max(T) [0 0 0 0 0 0 0] 0.60608

ExecutionTime = 75.4 s  ClockTime = 1211 s

Time = 5.66
Courant Number mean: 0.398467 max: 1.02073
diagonal:  Solving for T, Initial residual = 0, Final residual = 0, No Iterations 0
diagonal:  Solving for T, Initial residual = 0, Final residual = 0, No Iterations 0
diagonal:  Solving for T, Initial residual = 0, Final residual = 0, No Iterations 0
diagonal:  Solving for T, Initial residual = 0, Final residual = 0, No Iterations 0
 T goes from min(T) [0 0 0 0 0 0 0] -0.107758 to max(T) [0 0 0 0 0 0 0] 0.60607

ExecutionTime = 75.54 s  ClockTime = 1213 s

Time = 5.67
Courant Number mean: 0.399304 max: 1.01771
diagonal:  Solving for T, Initial residual = 0, Final residual = 0, No Iterations 0
diagonal:  Solving for T, Initial residual = 0, Final residual = 0, No Iterations 0
diagonal:  Solving for T, Initial residual = 0, Final residual = 0, No Iterations 0
diagonal:  Solving for T, Initial residual = 0, Final residual = 0, No Iterations 0
 T goes from min(T) [0 0 0 0 0 0 0] -0.107745 to max(T) [0 0 0 0 0 0 0] 0.605446

ExecutionTime = 75.67 s  ClockTime = 1215 s

Time = 5.68
Courant Number mean: 0.400126 max: 1.01443
diagonal:  Solving for T, Initial residual = 0, Final residual = 0, No Iterations 0
diagonal:  Solving for T, Initial residual = 0, Final residual = 0, No Iterations 0
diagonal:  Solving for T, Initial residual = 0, Final residual = 0, No Iterations 0
diagonal:  Solving for T, Initial residual = 0, Final residual = 0, No Iterations 0
 T goes from min(T) [0 0 0 0 0 0 0] -0.107301 to max(T) [0 0 0 0 0 0 0] 0.604589

ExecutionTime = 75.81 s  ClockTime = 1217 s

Time = 5.69
Courant Number mean: 0.400946 max: 1.01188
diagonal:  Solving for T, Initial residual = 0, Final residual = 0, No Iterations 0
diagonal:  Solving for T, Initial residual = 0, Final residual = 0, No Iterations 0
diagonal:  Solving for T, Initial residual = 0, Final residual = 0, No Iterations 0
diagonal:  Solving for T, Initial residual = 0, Final residual = 0, No Iterations 0
 T goes from min(T) [0 0 0 0 0 0 0] -0.108211 to max(T) [0 0 0 0 0 0 0] 0.605705

ExecutionTime = 75.95 s  ClockTime = 1218 s

Time = 5.7
Courant Number mean: 0.401772 max: 1.00929
diagonal:  Solving for T, Initial residual = 0, Final residual = 0, No Iterations 0
diagonal:  Solving for T, Initial residual = 0, Final residual = 0, No Iterations 0
diagonal:  Solving for T, Initial residual = 0, Final residual = 0, No Iterations 0
diagonal:  Solving for T, Initial residual = 0, Final residual = 0, No Iterations 0
 T goes from min(T) [0 0 0 0 0 0 0] -0.106734 to max(T) [0 0 0 0 0 0 0] 0.606319

ExecutionTime = 76.07 s  ClockTime = 1220 s

Time = 5.71
Courant Number mean: 0.402566 max: 1.00646
diagonal:  Solving for T, Initial residual = 0, Final residual = 0, No Iterations 0
diagonal:  Solving for T, Initial residual = 0, Final residual = 0, No Iterations 0
diagonal:  Solving for T, Initial residual = 0, Final residual = 0, No Iterations 0
diagonal:  Solving for T, Initial residual = 0, Final residual = 0, No Iterations 0
 T goes from min(T) [0 0 0 0 0 0 0] -0.107841 to max(T) [0 0 0 0 0 0 0] 0.606422

ExecutionTime = 76.2 s  ClockTime = 1222 s

Time = 5.72
Courant Number mean: 0.403352 max: 1.00338
diagonal:  Solving for T, Initial residual = 0, Final residual = 0, No Iterations 0
diagonal:  Solving for T, Initial residual = 0, Final residual = 0, No Iterations 0
diagonal:  Solving for T, Initial residual = 0, Final residual = 0, No Iterations 0
diagonal:  Solving for T, Initial residual = 0, Final residual = 0, No Iterations 0
 T goes from min(T) [0 0 0 0 0 0 0] -0.107475 to max(T) [0 0 0 0 0 0 0] 0.606005

ExecutionTime = 76.33 s  ClockTime = 1223 s

Time = 5.73
Courant Number mean: 0.404135 max: 1.00005
diagonal:  Solving for T, Initial residual = 0, Final residual = 0, No Iterations 0
diagonal:  Solving for T, Initial residual = 0, Final residual = 0, No Iterations 0
diagonal:  Solving for T, Initial residual = 0, Final residual = 0, No Iterations 0
diagonal:  Solving for T, Initial residual = 0, Final residual = 0, No Iterations 0
 T goes from min(T) [0 0 0 0 0 0 0] -0.106208 to max(T) [0 0 0 0 0 0 0] 0.605191

ExecutionTime = 76.47 s  ClockTime = 1225 s

Time = 5.74
Courant Number mean: 0.404912 max: 0.996487
diagonal:  Solving for T, Initial residual = 0, Final residual = 0, No Iterations 0
diagonal:  Solving for T, Initial residual = 0, Final residual = 0, No Iterations 0
diagonal:  Solving for T, Initial residual = 0, Final residual = 0, No Iterations 0
diagonal:  Solving for T, Initial residual = 0, Final residual = 0, No Iterations 0
 T goes from min(T) [0 0 0 0 0 0 0] -0.107246 to max(T) [0 0 0 0 0 0 0] 0.604938

ExecutionTime = 76.6 s  ClockTime = 1227 s

Time = 5.75
Courant Number mean: 0.405673 max: 0.993328
diagonal:  Solving for T, Initial residual = 0, Final residual = 0, No Iterations 0
diagonal:  Solving for T, Initial residual = 0, Final residual = 0, No Iterations 0
diagonal:  Solving for T, Initial residual = 0, Final residual = 0, No Iterations 0
diagonal:  Solving for T, Initial residual = 0, Final residual = 0, No Iterations 0
 T goes from min(T) [0 0 0 0 0 0 0] -0.107199 to max(T) [0 0 0 0 0 0 0] 0.605934

ExecutionTime = 76.73 s  ClockTime = 1229 s

Time = 5.76
Courant Number mean: 0.406422 max: 0.990451
diagonal:  Solving for T, Initial residual = 0, Final residual = 0, No Iterations 0
diagonal:  Solving for T, Initial residual = 0, Final residual = 0, No Iterations 0
diagonal:  Solving for T, Initial residual = 0, Final residual = 0, No Iterations 0
diagonal:  Solving for T, Initial residual = 0, Final residual = 0, No Iterations 0
 T goes from min(T) [0 0 0 0 0 0 0] -0.105976 to max(T) [0 0 0 0 0 0 0] 0.606511

ExecutionTime = 76.86 s  ClockTime = 1230 s

Time = 5.77
Courant Number mean: 0.407165 max: 0.987333
diagonal:  Solving for T, Initial residual = 0, Final residual = 0, No Iterations 0
diagonal:  Solving for T, Initial residual = 0, Final residual = 0, No Iterations 0
diagonal:  Solving for T, Initial residual = 0, Final residual = 0, No Iterations 0
diagonal:  Solving for T, Initial residual = 0, Final residual = 0, No Iterations 0
 T goes from min(T) [0 0 0 0 0 0 0] -0.106781 to max(T) [0 0 0 0 0 0 0] 0.606669

ExecutionTime = 77 s  ClockTime = 1232 s

Time = 5.78
Courant Number mean: 0.40791 max: 0.983974
diagonal:  Solving for T, Initial residual = 0, Final residual = 0, No Iterations 0
diagonal:  Solving for T, Initial residual = 0, Final residual = 0, No Iterations 0
diagonal:  Solving for T, Initial residual = 0, Final residual = 0, No Iterations 0
diagonal:  Solving for T, Initial residual = 0, Final residual = 0, No Iterations 0
 T goes from min(T) [0 0 0 0 0 0 0] -0.107348 to max(T) [0 0 0 0 0 0 0] 0.60641

ExecutionTime = 77.13 s  ClockTime = 1234 s

Time = 5.79
Courant Number mean: 0.408627 max: 0.98038
diagonal:  Solving for T, Initial residual = 0, Final residual = 0, No Iterations 0
diagonal:  Solving for T, Initial residual = 0, Final residual = 0, No Iterations 0
diagonal:  Solving for T, Initial residual = 0, Final residual = 0, No Iterations 0
diagonal:  Solving for T, Initial residual = 0, Final residual = 0, No Iterations 0
 T goes from min(T) [0 0 0 0 0 0 0] -0.106138 to max(T) [0 0 0 0 0 0 0] 0.605782

ExecutionTime = 77.26 s  ClockTime = 1236 s

Time = 5.8
Courant Number mean: 0.409329 max: 0.976757
diagonal:  Solving for T, Initial residual = 0, Final residual = 0, No Iterations 0
diagonal:  Solving for T, Initial residual = 0, Final residual = 0, No Iterations 0
diagonal:  Solving for T, Initial residual = 0, Final residual = 0, No Iterations 0
diagonal:  Solving for T, Initial residual = 0, Final residual = 0, No Iterations 0
 T goes from min(T) [0 0 0 0 0 0 0] -0.106284 to max(T) [0 0 0 0 0 0 0] 0.605466

ExecutionTime = 77.4 s  ClockTime = 1237 s

Time = 5.81
Courant Number mean: 0.410031 max: 0.973449
diagonal:  Solving for T, Initial residual = 0, Final residual = 0, No Iterations 0
diagonal:  Solving for T, Initial residual = 0, Final residual = 0, No Iterations 0
diagonal:  Solving for T, Initial residual = 0, Final residual = 0, No Iterations 0
diagonal:  Solving for T, Initial residual = 0, Final residual = 0, No Iterations 0
 T goes from min(T) [0 0 0 0 0 0 0] -0.107221 to max(T) [0 0 0 0 0 0 0] 0.604967

ExecutionTime = 77.53 s  ClockTime = 1239 s

Time = 5.82
Courant Number mean: 0.410731 max: 0.96991
diagonal:  Solving for T, Initial residual = 0, Final residual = 0, No Iterations 0
diagonal:  Solving for T, Initial residual = 0, Final residual = 0, No Iterations 0
diagonal:  Solving for T, Initial residual = 0, Final residual = 0, No Iterations 0
diagonal:  Solving for T, Initial residual = 0, Final residual = 0, No Iterations 0
 T goes from min(T) [0 0 0 0 0 0 0] -0.106695 to max(T) [0 0 0 0 0 0 0] 0.605918

ExecutionTime = 77.67 s  ClockTime = 1241 s

Time = 5.83
Courant Number mean: 0.411406 max: 0.966317
diagonal:  Solving for T, Initial residual = 0, Final residual = 0, No Iterations 0
diagonal:  Solving for T, Initial residual = 0, Final residual = 0, No Iterations 0
diagonal:  Solving for T, Initial residual = 0, Final residual = 0, No Iterations 0
diagonal:  Solving for T, Initial residual = 0, Final residual = 0, No Iterations 0
 T goes from min(T) [0 0 0 0 0 0 0] -0.104733 to max(T) [0 0 0 0 0 0 0] 0.606545

ExecutionTime = 77.8 s  ClockTime = 1243 s

Time = 5.84
Courant Number mean: 0.41206 max: 0.962711
diagonal:  Solving for T, Initial residual = 0, Final residual = 0, No Iterations 0
diagonal:  Solving for T, Initial residual = 0, Final residual = 0, No Iterations 0
diagonal:  Solving for T, Initial residual = 0, Final residual = 0, No Iterations 0
diagonal:  Solving for T, Initial residual = 0, Final residual = 0, No Iterations 0
 T goes from min(T) [0 0 0 0 0 0 0] -0.105918 to max(T) [0 0 0 0 0 0 0] 0.606855

ExecutionTime = 77.93 s  ClockTime = 1244 s

Time = 5.85
Courant Number mean: 0.412706 max: 0.959223
diagonal:  Solving for T, Initial residual = 0, Final residual = 0, No Iterations 0
diagonal:  Solving for T, Initial residual = 0, Final residual = 0, No Iterations 0
diagonal:  Solving for T, Initial residual = 0, Final residual = 0, No Iterations 0
diagonal:  Solving for T, Initial residual = 0, Final residual = 0, No Iterations 0
 T goes from min(T) [0 0 0 0 0 0 0] -0.10677 to max(T) [0 0 0 0 0 0 0] 0.606858

ExecutionTime = 78.07 s  ClockTime = 1246 s

Time = 5.86
Courant Number mean: 0.413354 max: 0.955885
diagonal:  Solving for T, Initial residual = 0, Final residual = 0, No Iterations 0
diagonal:  Solving for T, Initial residual = 0, Final residual = 0, No Iterations 0
diagonal:  Solving for T, Initial residual = 0, Final residual = 0, No Iterations 0
diagonal:  Solving for T, Initial residual = 0, Final residual = 0, No Iterations 0
 T goes from min(T) [0 0 0 0 0 0 0] -0.106485 to max(T) [0 0 0 0 0 0 0] 0.606561

ExecutionTime = 78.19 s  ClockTime = 1248 s

Time = 5.87
Courant Number mean: 0.413972 max: 0.95232
diagonal:  Solving for T, Initial residual = 0, Final residual = 0, No Iterations 0
diagonal:  Solving for T, Initial residual = 0, Final residual = 0, No Iterations 0
diagonal:  Solving for T, Initial residual = 0, Final residual = 0, No Iterations 0
diagonal:  Solving for T, Initial residual = 0, Final residual = 0, No Iterations 0
 T goes from min(T) [0 0 0 0 0 0 0] -0.105101 to max(T) [0 0 0 0 0 0 0] 0.606077

ExecutionTime = 78.33 s  ClockTime = 1250 s

Time = 5.88
Courant Number mean: 0.414576 max: 0.948531
diagonal:  Solving for T, Initial residual = 0, Final residual = 0, No Iterations 0
diagonal:  Solving for T, Initial residual = 0, Final residual = 0, No Iterations 0
diagonal:  Solving for T, Initial residual = 0, Final residual = 0, No Iterations 0
diagonal:  Solving for T, Initial residual = 0, Final residual = 0, No Iterations 0
 T goes from min(T) [0 0 0 0 0 0 0] -0.104006 to max(T) [0 0 0 0 0 0 0] 0.606158

ExecutionTime = 78.46 s  ClockTime = 1251 s

Time = 5.89
Courant Number mean: 0.415177 max: 0.944522
diagonal:  Solving for T, Initial residual = 0, Final residual = 0, No Iterations 0
diagonal:  Solving for T, Initial residual = 0, Final residual = 0, No Iterations 0
diagonal:  Solving for T, Initial residual = 0, Final residual = 0, No Iterations 0
diagonal:  Solving for T, Initial residual = 0, Final residual = 0, No Iterations 0
 T goes from min(T) [0 0 0 0 0 0 0] -0.1054 to max(T) [0 0 0 0 0 0 0] 0.606011

ExecutionTime = 78.59 s  ClockTime = 1253 s

Time = 5.9
Courant Number mean: 0.415768 max: 0.940298
diagonal:  Solving for T, Initial residual = 0, Final residual = 0, No Iterations 0
diagonal:  Solving for T, Initial residual = 0, Final residual = 0, No Iterations 0
diagonal:  Solving for T, Initial residual = 0, Final residual = 0, No Iterations 0
diagonal:  Solving for T, Initial residual = 0, Final residual = 0, No Iterations 0
 T goes from min(T) [0 0 0 0 0 0 0] -0.106211 to max(T) [0 0 0 0 0 0 0] 0.605647

ExecutionTime = 78.73 s  ClockTime = 1255 s

Time = 5.91
Courant Number mean: 0.416332 max: 0.93688
diagonal:  Solving for T, Initial residual = 0, Final residual = 0, No Iterations 0
diagonal:  Solving for T, Initial residual = 0, Final residual = 0, No Iterations 0
diagonal:  Solving for T, Initial residual = 0, Final residual = 0, No Iterations 0
diagonal:  Solving for T, Initial residual = 0, Final residual = 0, No Iterations 0
 T goes from min(T) [0 0 0 0 0 0 0] -0.106212 to max(T) [0 0 0 0 0 0 0] 0.605781

ExecutionTime = 78.85 s  ClockTime = 1256 s

Time = 5.92
Courant Number mean: 0.416873 max: 0.933307
diagonal:  Solving for T, Initial residual = 0, Final residual = 0, No Iterations 0
diagonal:  Solving for T, Initial residual = 0, Final residual = 0, No Iterations 0
diagonal:  Solving for T, Initial residual = 0, Final residual = 0, No Iterations 0
diagonal:  Solving for T, Initial residual = 0, Final residual = 0, No Iterations 0
 T goes from min(T) [0 0 0 0 0 0 0] -0.105448 to max(T) [0 0 0 0 0 0 0] 0.60641

ExecutionTime = 78.99 s  ClockTime = 1258 s

Time = 5.93
Courant Number mean: 0.417406 max: 0.929516
diagonal:  Solving for T, Initial residual = 0, Final residual = 0, No Iterations 0
diagonal:  Solving for T, Initial residual = 0, Final residual = 0, No Iterations 0
diagonal:  Solving for T, Initial residual = 0, Final residual = 0, No Iterations 0
diagonal:  Solving for T, Initial residual = 0, Final residual = 0, No Iterations 0
 T goes from min(T) [0 0 0 0 0 0 0] -0.103979 to max(T) [0 0 0 0 0 0 0] 0.606831

ExecutionTime = 79.12 s  ClockTime = 1259 s

Time = 5.94
Courant Number mean: 0.417929 max: 0.92551
diagonal:  Solving for T, Initial residual = 0, Final residual = 0, No Iterations 0
diagonal:  Solving for T, Initial residual = 0, Final residual = 0, No Iterations 0
diagonal:  Solving for T, Initial residual = 0, Final residual = 0, No Iterations 0
diagonal:  Solving for T, Initial residual = 0, Final residual = 0, No Iterations 0
 T goes from min(T) [0 0 0 0 0 0 0] -0.104324 to max(T) [0 0 0 0 0 0 0] 0.607057

ExecutionTime = 79.25 s  ClockTime = 1261 s

Time = 5.95
Courant Number mean: 0.418427 max: 0.921293
diagonal:  Solving for T, Initial residual = 0, Final residual = 0, No Iterations 0
diagonal:  Solving for T, Initial residual = 0, Final residual = 0, No Iterations 0
diagonal:  Solving for T, Initial residual = 0, Final residual = 0, No Iterations 0
diagonal:  Solving for T, Initial residual = 0, Final residual = 0, No Iterations 0
 T goes from min(T) [0 0 0 0 0 0 0] -0.104619 to max(T) [0 0 0 0 0 0 0] 0.607099

ExecutionTime = 79.39 s  ClockTime = 1263 s

Time = 5.96
Courant Number mean: 0.418907 max: 0.916869
diagonal:  Solving for T, Initial residual = 0, Final residual = 0, No Iterations 0
diagonal:  Solving for T, Initial residual = 0, Final residual = 0, No Iterations 0
diagonal:  Solving for T, Initial residual = 0, Final residual = 0, No Iterations 0
diagonal:  Solving for T, Initial residual = 0, Final residual = 0, No Iterations 0
 T goes from min(T) [0 0 0 0 0 0 0] -0.105324 to max(T) [0 0 0 0 0 0 0] 0.606969

ExecutionTime = 79.52 s  ClockTime = 1264 s

Time = 5.97
Courant Number mean: 0.419371 max: 0.913
diagonal:  Solving for T, Initial residual = 0, Final residual = 0, No Iterations 0
diagonal:  Solving for T, Initial residual = 0, Final residual = 0, No Iterations 0
diagonal:  Solving for T, Initial residual = 0, Final residual = 0, No Iterations 0
diagonal:  Solving for T, Initial residual = 0, Final residual = 0, No Iterations 0
 T goes from min(T) [0 0 0 0 0 0 0] -0.105693 to max(T) [0 0 0 0 0 0 0] 0.606678

ExecutionTime = 79.65 s  ClockTime = 1266 s

Time = 5.98
Courant Number mean: 0.419817 max: 0.909225
diagonal:  Solving for T, Initial residual = 0, Final residual = 0, No Iterations 0
diagonal:  Solving for T, Initial residual = 0, Final residual = 0, No Iterations 0
diagonal:  Solving for T, Initial residual = 0, Final residual = 0, No Iterations 0
diagonal:  Solving for T, Initial residual = 0, Final residual = 0, No Iterations 0
 T goes from min(T) [0 0 0 0 0 0 0] -0.105592 to max(T) [0 0 0 0 0 0 0] 0.606238

ExecutionTime = 79.77 s  ClockTime = 1267 s

Time = 5.99
Courant Number mean: 0.420243 max: 0.90524
diagonal:  Solving for T, Initial residual = 0, Final residual = 0, No Iterations 0
diagonal:  Solving for T, Initial residual = 0, Final residual = 0, No Iterations 0
diagonal:  Solving for T, Initial residual = 0, Final residual = 0, No Iterations 0
diagonal:  Solving for T, Initial residual = 0, Final residual = 0, No Iterations 0
 T goes from min(T) [0 0 0 0 0 0 0] -0.105069 to max(T) [0 0 0 0 0 0 0] 0.606295

ExecutionTime = 79.91 s  ClockTime = 1269 s

Time = 6
Courant Number mean: 0.420634 max: 0.90105
diagonal:  Solving for T, Initial residual = 0, Final residual = 0, No Iterations 0
diagonal:  Solving for T, Initial residual = 0, Final residual = 0, No Iterations 0
diagonal:  Solving for T, Initial residual = 0, Final residual = 0, No Iterations 0
diagonal:  Solving for T, Initial residual = 0, Final residual = 0, No Iterations 0
 T goes from min(T) [0 0 0 0 0 0 0] -0.104176 to max(T) [0 0 0 0 0 0 0] 0.606538

ExecutionTime = 80.04 s  ClockTime = 1270 s

End

