/*---------------------------------------------------------------------------*\
| =========                 |                                                 |
| \\      /  F ield         | OpenFOAM: The Open Source CFD Toolbox           |
|  \\    /   O peration     | Version:  dev                                   |
|   \\  /    A nd           | Web:      www.OpenFOAM.org                      |
|    \\/     M anipulation  |                                                 |
\*---------------------------------------------------------------------------*/
Build  : dev-90f39e0d894d
Exec   : scalarDeformationWithGhosts implicit -case nonOrthogW/240x120/c1_implicit
Date   : May 23 2017
Time   : 20:31:11
Host   : "sws02hw.private.rdg.ac.uk"
PID    : 22900
Case   : nonOrthogW/240x120/c1_implicit
nProcs : 1
sigFpe : Enabling floating point exception trapping (FOAM_SIGFPE).
fileModificationChecking : Monitoring run-time modified files using timeStampMaster (fileModificationSkew 10)
allowSystemOperations : Allowing user-supplied system call operations

// * * * * * * * * * * * * * * * * * * * * * * * * * * * * * * * * * * * * * //
Create time

Create mesh for time = 0

Reading field T

Reading fields phi (compulsory), U and Uf (optional)

Calculating owner stencils
Calculating neighbour stencils

Calculating scalar transport

Courant Number mean: 0.465598 max: 0.965081
Time = 0.005
Courant Number mean: 0.465592 max: 0.966307
DILUPBiCG:  Solving for T, Initial residual = 0.00671526, Final residual = 3.53366e-09, No Iterations 3
DILUPBiCG:  Solving for T, Initial residual = 2.61245e-05, Final residual = 2.34336e-11, No Iterations 3
DILUPBiCG:  Solving for T, Initial residual = 9.12814e-08, Final residual = 1.30055e-09, No Iterations 1
DILUPBiCG:  Solving for T, Initial residual = 3.93004e-09, Final residual = 3.93004e-09, No Iterations 0
 T goes from min(T) [0 0 0 0 0 0 0] 7.76803e-21 to max(T) [0 0 0 0 0 0 0] 0.953936

ExecutionTime = 8.35 s  ClockTime = 143 s

Time = 0.01
Courant Number mean: 0.465573 max: 0.967512
DILUPBiCG:  Solving for T, Initial residual = 0.00671437, Final residual = 3.54019e-09, No Iterations 3
DILUPBiCG:  Solving for T, Initial residual = 2.61754e-05, Final residual = 2.41815e-11, No Iterations 3
DILUPBiCG:  Solving for T, Initial residual = 9.16095e-08, Final residual = 1.2974e-09, No Iterations 1
DILUPBiCG:  Solving for T, Initial residual = 3.90079e-09, Final residual = 3.90079e-09, No Iterations 0
 T goes from min(T) [0 0 0 0 0 0 0] 7.49227e-21 to max(T) [0 0 0 0 0 0 0] 0.953262

ExecutionTime = 8.89 s  ClockTime = 156 s

Time = 0.015
Courant Number mean: 0.465539 max: 0.968922
DILUPBiCG:  Solving for T, Initial residual = 0.00671501, Final residual = 3.54568e-09, No Iterations 3
DILUPBiCG:  Solving for T, Initial residual = 2.62288e-05, Final residual = 2.52414e-11, No Iterations 3
DILUPBiCG:  Solving for T, Initial residual = 9.21718e-08, Final residual = 1.29586e-09, No Iterations 1
DILUPBiCG:  Solving for T, Initial residual = 3.90919e-09, Final residual = 3.90919e-09, No Iterations 0
 T goes from min(T) [0 0 0 0 0 0 0] 7.67146e-21 to max(T) [0 0 0 0 0 0 0] 0.953924

ExecutionTime = 9.43 s  ClockTime = 168 s

Time = 0.02
Courant Number mean: 0.46549 max: 0.970268
DILUPBiCG:  Solving for T, Initial residual = 0.00671626, Final residual = 3.55008e-09, No Iterations 3
DILUPBiCG:  Solving for T, Initial residual = 2.62918e-05, Final residual = 2.66405e-11, No Iterations 3
DILUPBiCG:  Solving for T, Initial residual = 9.29438e-08, Final residual = 1.29483e-09, No Iterations 1
DILUPBiCG:  Solving for T, Initial residual = 3.94459e-09, Final residual = 3.94459e-09, No Iterations 0
 T goes from min(T) [0 0 0 0 0 0 0] 8.27772e-21 to max(T) [0 0 0 0 0 0 0] 0.953731

ExecutionTime = 9.95 s  ClockTime = 178 s

Time = 0.025
Courant Number mean: 0.465429 max: 0.97155
DILUPBiCG:  Solving for T, Initial residual = 0.00671822, Final residual = 3.55224e-09, No Iterations 3
DILUPBiCG:  Solving for T, Initial residual = 2.63599e-05, Final residual = 2.84211e-11, No Iterations 3
DILUPBiCG:  Solving for T, Initial residual = 9.40184e-08, Final residual = 1.29656e-09, No Iterations 1
DILUPBiCG:  Solving for T, Initial residual = 4.01677e-09, Final residual = 4.01677e-09, No Iterations 0
 T goes from min(T) [0 0 0 0 0 0 0] 8.09169e-21 to max(T) [0 0 0 0 0 0 0] 0.953922

ExecutionTime = 10.47 s  ClockTime = 188 s

Time = 0.03
Courant Number mean: 0.465355 max: 0.972768
DILUPBiCG:  Solving for T, Initial residual = 0.00671947, Final residual = 3.55174e-09, No Iterations 3
DILUPBiCG:  Solving for T, Initial residual = 2.64355e-05, Final residual = 3.06604e-11, No Iterations 3
DILUPBiCG:  Solving for T, Initial residual = 9.53973e-08, Final residual = 1.30208e-09, No Iterations 1
DILUPBiCG:  Solving for T, Initial residual = 4.10982e-09, Final residual = 4.10982e-09, No Iterations 0
 T goes from min(T) [0 0 0 0 0 0 0] 7.72558e-21 to max(T) [0 0 0 0 0 0 0] 0.95334

ExecutionTime = 11.01 s  ClockTime = 198 s

Time = 0.035
Courant Number mean: 0.465267 max: 0.973922
DILUPBiCG:  Solving for T, Initial residual = 0.00672294, Final residual = 3.54823e-09, No Iterations 3
DILUPBiCG:  Solving for T, Initial residual = 2.65126e-05, Final residual = 3.34105e-11, No Iterations 3
DILUPBiCG:  Solving for T, Initial residual = 9.72587e-08, Final residual = 1.31383e-09, No Iterations 1
DILUPBiCG:  Solving for T, Initial residual = 4.21966e-09, Final residual = 4.21966e-09, No Iterations 0
 T goes from min(T) [0 0 0 0 0 0 0] 7.79199e-21 to max(T) [0 0 0 0 0 0 0] 0.953902

ExecutionTime = 11.54 s  ClockTime = 208 s

Time = 0.04
Courant Number mean: 0.465162 max: 0.975012
DILUPBiCG:  Solving for T, Initial residual = 0.00672506, Final residual = 3.54142e-09, No Iterations 3
DILUPBiCG:  Solving for T, Initial residual = 2.65983e-05, Final residual = 3.67628e-11, No Iterations 3
DILUPBiCG:  Solving for T, Initial residual = 9.93627e-08, Final residual = 1.32794e-09, No Iterations 1
DILUPBiCG:  Solving for T, Initial residual = 4.34209e-09, Final residual = 4.34209e-09, No Iterations 0
 T goes from min(T) [0 0 0 0 0 0 0] 8.27682e-21 to max(T) [0 0 0 0 0 0 0] 0.953782

ExecutionTime = 12.1 s  ClockTime = 219 s

Time = 0.045
Courant Number mean: 0.465046 max: 0.976348
DILUPBiCG:  Solving for T, Initial residual = 0.0067284, Final residual = 3.53139e-09, No Iterations 3
DILUPBiCG:  Solving for T, Initial residual = 2.66884e-05, Final residual = 4.07957e-11, No Iterations 3
DILUPBiCG:  Solving for T, Initial residual = 1.01788e-07, Final residual = 1.34556e-09, No Iterations 1
DILUPBiCG:  Solving for T, Initial residual = 4.47837e-09, Final residual = 4.47837e-09, No Iterations 0
 T goes from min(T) [0 0 0 0 0 0 0] 8.25291e-21 to max(T) [0 0 0 0 0 0 0] 0.953842

ExecutionTime = 12.61 s  ClockTime = 229 s

Time = 0.05
Courant Number mean: 0.464918 max: 0.97762
DILUPBiCG:  Solving for T, Initial residual = 0.00673129, Final residual = 3.51768e-09, No Iterations 3
DILUPBiCG:  Solving for T, Initial residual = 2.67808e-05, Final residual = 4.56335e-11, No Iterations 3
DILUPBiCG:  Solving for T, Initial residual = 1.04425e-07, Final residual = 1.36493e-09, No Iterations 1
DILUPBiCG:  Solving for T, Initial residual = 4.6296e-09, Final residual = 4.6296e-09, No Iterations 0
 T goes from min(T) [0 0 0 0 0 0 0] 7.83803e-21 to max(T) [0 0 0 0 0 0 0] 0.953544

ExecutionTime = 13.13 s  ClockTime = 238 s

Time = 0.055
Courant Number mean: 0.464775 max: 0.978828
DILUPBiCG:  Solving for T, Initial residual = 0.00673512, Final residual = 3.50045e-09, No Iterations 3
DILUPBiCG:  Solving for T, Initial residual = 2.68826e-05, Final residual = 5.14077e-11, No Iterations 3
DILUPBiCG:  Solving for T, Initial residual = 1.07261e-07, Final residual = 1.38787e-09, No Iterations 1
DILUPBiCG:  Solving for T, Initial residual = 4.79941e-09, Final residual = 4.79941e-09, No Iterations 0
 T goes from min(T) [0 0 0 0 0 0 0] 7.83847e-21 to max(T) [0 0 0 0 0 0 0] 0.953856

ExecutionTime = 13.64 s  ClockTime = 247 s

Time = 0.06
Courant Number mean: 0.464616 max: 0.979971
DILUPBiCG:  Solving for T, Initial residual = 0.00673803, Final residual = 3.47904e-09, No Iterations 3
DILUPBiCG:  Solving for T, Initial residual = 2.69879e-05, Final residual = 5.82438e-11, No Iterations 3
DILUPBiCG:  Solving for T, Initial residual = 1.10234e-07, Final residual = 1.41313e-09, No Iterations 1
DILUPBiCG:  Solving for T, Initial residual = 5.00754e-09, Final residual = 5.00754e-09, No Iterations 0
 T goes from min(T) [0 0 0 0 0 0 0] 8.24627e-21 to max(T) [0 0 0 0 0 0 0] 0.953779

ExecutionTime = 14.2 s  ClockTime = 257 s

Time = 0.065
Courant Number mean: 0.464446 max: 0.981107
DILUPBiCG:  Solving for T, Initial residual = 0.0067425, Final residual = 3.45481e-09, No Iterations 3
DILUPBiCG:  Solving for T, Initial residual = 2.70973e-05, Final residual = 6.62881e-11, No Iterations 3
DILUPBiCG:  Solving for T, Initial residual = 1.13348e-07, Final residual = 1.44203e-09, No Iterations 1
DILUPBiCG:  Solving for T, Initial residual = 5.2534e-09, Final residual = 5.2534e-09, No Iterations 0
 T goes from min(T) [0 0 0 0 0 0 0] 8.36055e-21 to max(T) [0 0 0 0 0 0 0] 0.953598

ExecutionTime = 14.68 s  ClockTime = 265 s

Time = 0.07
Courant Number mean: 0.464263 max: 0.982302
DILUPBiCG:  Solving for T, Initial residual = 0.00674577, Final residual = 3.42681e-09, No Iterations 3
DILUPBiCG:  Solving for T, Initial residual = 2.72125e-05, Final residual = 7.56478e-11, No Iterations 3
DILUPBiCG:  Solving for T, Initial residual = 1.16693e-07, Final residual = 1.47435e-09, No Iterations 1
DILUPBiCG:  Solving for T, Initial residual = 5.54295e-09, Final residual = 5.54295e-09, No Iterations 0
 T goes from min(T) [0 0 0 0 0 0 0] 7.89454e-21 to max(T) [0 0 0 0 0 0 0] 0.953728

ExecutionTime = 15.16 s  ClockTime = 273 s

Time = 0.075
Courant Number mean: 0.464066 max: 0.983433
DILUPBiCG:  Solving for T, Initial residual = 0.00675009, Final residual = 3.39589e-09, No Iterations 3
DILUPBiCG:  Solving for T, Initial residual = 2.7333e-05, Final residual = 8.63689e-11, No Iterations 3
DILUPBiCG:  Solving for T, Initial residual = 1.20284e-07, Final residual = 1.50883e-09, No Iterations 1
DILUPBiCG:  Solving for T, Initial residual = 5.88264e-09, Final residual = 5.88264e-09, No Iterations 0
 T goes from min(T) [0 0 0 0 0 0 0] 7.83337e-21 to max(T) [0 0 0 0 0 0 0] 0.953685

ExecutionTime = 15.66 s  ClockTime = 281 s

Time = 0.08
Courant Number mean: 0.463855 max: 0.984498
DILUPBiCG:  Solving for T, Initial residual = 0.00675414, Final residual = 3.36207e-09, No Iterations 3
DILUPBiCG:  Solving for T, Initial residual = 2.74605e-05, Final residual = 9.83545e-11, No Iterations 3
DILUPBiCG:  Solving for T, Initial residual = 1.24094e-07, Final residual = 1.54523e-09, No Iterations 1
DILUPBiCG:  Solving for T, Initial residual = 6.26956e-09, Final residual = 6.26956e-09, No Iterations 0
 T goes from min(T) [0 0 0 0 0 0 0] 8.17142e-21 to max(T) [0 0 0 0 0 0 0] 0.953733

ExecutionTime = 16.19 s  ClockTime = 290 s

Time = 0.085
Courant Number mean: 0.463629 max: 0.985606
DILUPBiCG:  Solving for T, Initial residual = 0.00675818, Final residual = 3.32634e-09, No Iterations 3
DILUPBiCG:  Solving for T, Initial residual = 2.75909e-05, Final residual = 9.28621e-09, No Iterations 2
DILUPBiCG:  Solving for T, Initial residual = 1.32682e-07, Final residual = 1.63767e-09, No Iterations 1
DILUPBiCG:  Solving for T, Initial residual = 6.7366e-09, Final residual = 6.7366e-09, No Iterations 0
 T goes from min(T) [0 0 0 0 0 0 0] 8.44642e-21 to max(T) [0 0 0 0 0 0 0] 0.953708

ExecutionTime = 16.75 s  ClockTime = 300 s

Time = 0.09
Courant Number mean: 0.463391 max: 0.986827
DILUPBiCG:  Solving for T, Initial residual = 0.0067625, Final residual = 3.28969e-09, No Iterations 3
DILUPBiCG:  Solving for T, Initial residual = 2.77241e-05, Final residual = 7.47828e-09, No Iterations 2
DILUPBiCG:  Solving for T, Initial residual = 1.36186e-07, Final residual = 1.6681e-09, No Iterations 1
DILUPBiCG:  Solving for T, Initial residual = 7.20385e-09, Final residual = 7.20385e-09, No Iterations 0
 T goes from min(T) [0 0 0 0 0 0 0] 7.92925e-21 to max(T) [0 0 0 0 0 0 0] 0.95379

ExecutionTime = 17.29 s  ClockTime = 309 s

Time = 0.095
Courant Number mean: 0.463141 max: 0.988011
DILUPBiCG:  Solving for T, Initial residual = 0.00676676, Final residual = 3.25506e-09, No Iterations 3
DILUPBiCG:  Solving for T, Initial residual = 2.78665e-05, Final residual = 6.07355e-09, No Iterations 2
DILUPBiCG:  Solving for T, Initial residual = 1.40123e-07, Final residual = 1.70284e-09, No Iterations 1
DILUPBiCG:  Solving for T, Initial residual = 7.71489e-09, Final residual = 7.71489e-09, No Iterations 0
 T goes from min(T) [0 0 0 0 0 0 0] 7.80988e-21 to max(T) [0 0 0 0 0 0 0] 0.953384

ExecutionTime = 17.78 s  ClockTime = 317 s

Time = 0.1
Courant Number mean: 0.462875 max: 0.989131
DILUPBiCG:  Solving for T, Initial residual = 0.00677122, Final residual = 3.22671e-09, No Iterations 3
DILUPBiCG:  Solving for T, Initial residual = 2.80139e-05, Final residual = 5.00325e-09, No Iterations 2
DILUPBiCG:  Solving for T, Initial residual = 1.44493e-07, Final residual = 1.74146e-09, No Iterations 1
DILUPBiCG:  Solving for T, Initial residual = 8.26541e-09, Final residual = 8.26541e-09, No Iterations 0
 T goes from min(T) [0 0 0 0 0 0 0] 8.0836e-21 to max(T) [0 0 0 0 0 0 0] 0.953818

ExecutionTime = 18.28 s  ClockTime = 326 s

Time = 0.105
Courant Number mean: 0.462595 max: 0.990184
DILUPBiCG:  Solving for T, Initial residual = 0.0067753, Final residual = 3.21254e-09, No Iterations 3
DILUPBiCG:  Solving for T, Initial residual = 2.81665e-05, Final residual = 4.19279e-09, No Iterations 2
DILUPBiCG:  Solving for T, Initial residual = 1.49283e-07, Final residual = 1.78295e-09, No Iterations 1
DILUPBiCG:  Solving for T, Initial residual = 8.86651e-09, Final residual = 8.86651e-09, No Iterations 0
 T goes from min(T) [0 0 0 0 0 0 0] 8.52491e-21 to max(T) [0 0 0 0 0 0 0] 0.953885

ExecutionTime = 18.79 s  ClockTime = 335 s

Time = 0.11
Courant Number mean: 0.462303 max: 0.991172
DILUPBiCG:  Solving for T, Initial residual = 0.00678026, Final residual = 3.21782e-09, No Iterations 3
DILUPBiCG:  Solving for T, Initial residual = 2.83261e-05, Final residual = 3.59696e-09, No Iterations 2
DILUPBiCG:  Solving for T, Initial residual = 1.54464e-07, Final residual = 1.8257e-09, No Iterations 1
DILUPBiCG:  Solving for T, Initial residual = 9.50968e-09, Final residual = 9.50968e-09, No Iterations 0
 T goes from min(T) [0 0 0 0 0 0 0] 7.95694e-21 to max(T) [0 0 0 0 0 0 0] 0.953992

ExecutionTime = 19.28 s  ClockTime = 343 s

Time = 0.115
Courant Number mean: 0.461999 max: 0.992126
DILUPBiCG:  Solving for T, Initial residual = 0.00678456, Final residual = 3.23458e-09, No Iterations 3
DILUPBiCG:  Solving for T, Initial residual = 2.84891e-05, Final residual = 3.1478e-09, No Iterations 2
DILUPBiCG:  Solving for T, Initial residual = 1.60049e-07, Final residual = 1.86994e-09, No Iterations 1
DILUPBiCG:  Solving for T, Initial residual = 1.02027e-08, Final residual = 2.52957e-10, No Iterations 1
 T goes from min(T) [0 0 0 0 0 0 0] 7.78173e-21 to max(T) [0 0 0 0 0 0 0] 0.953641

ExecutionTime = 19.82 s  ClockTime = 352 s

Time = 0.12
Courant Number mean: 0.46168 max: 0.993297
DILUPBiCG:  Solving for T, Initial residual = 0.00678935, Final residual = 3.27684e-09, No Iterations 3
DILUPBiCG:  Solving for T, Initial residual = 2.86535e-05, Final residual = 2.79155e-09, No Iterations 2
DILUPBiCG:  Solving for T, Initial residual = 1.66108e-07, Final residual = 1.91816e-09, No Iterations 1
DILUPBiCG:  Solving for T, Initial residual = 1.09476e-08, Final residual = 2.71127e-10, No Iterations 1
 T goes from min(T) [0 0 0 0 0 0 0] 7.99479e-21 to max(T) [0 0 0 0 0 0 0] 0.953298

ExecutionTime = 20.32 s  ClockTime = 360 s

Time = 0.125
Courant Number mean: 0.461348 max: 0.994403
DILUPBiCG:  Solving for T, Initial residual = 0.00679434, Final residual = 3.38032e-09, No Iterations 3
DILUPBiCG:  Solving for T, Initial residual = 2.88252e-05, Final residual = 2.50122e-09, No Iterations 2
DILUPBiCG:  Solving for T, Initial residual = 1.72482e-07, Final residual = 1.96603e-09, No Iterations 1
DILUPBiCG:  Solving for T, Initial residual = 1.17421e-08, Final residual = 2.90657e-10, No Iterations 1
 T goes from min(T) [0 0 0 0 0 0 0] 8.59605e-21 to max(T) [0 0 0 0 0 0 0] 0.953985

ExecutionTime = 20.82 s  ClockTime = 368 s

Time = 0.13
Courant Number mean: 0.461002 max: 0.995442
DILUPBiCG:  Solving for T, Initial residual = 0.00679824, Final residual = 3.67024e-09, No Iterations 3
DILUPBiCG:  Solving for T, Initial residual = 2.90012e-05, Final residual = 2.2616e-09, No Iterations 2
DILUPBiCG:  Solving for T, Initial residual = 1.79145e-07, Final residual = 2.01322e-09, No Iterations 1
DILUPBiCG:  Solving for T, Initial residual = 1.25767e-08, Final residual = 3.11714e-10, No Iterations 1
 T goes from min(T) [0 0 0 0 0 0 0] 7.9854e-21 to max(T) [0 0 0 0 0 0 0] 0.954099

ExecutionTime = 21.33 s  ClockTime = 377 s

Time = 0.135
Courant Number mean: 0.460644 max: 0.996416
DILUPBiCG:  Solving for T, Initial residual = 0.00680376, Final residual = 4.80272e-09, No Iterations 3
DILUPBiCG:  Solving for T, Initial residual = 2.91771e-05, Final residual = 2.06252e-09, No Iterations 2
DILUPBiCG:  Solving for T, Initial residual = 1.86164e-07, Final residual = 2.06038e-09, No Iterations 1
DILUPBiCG:  Solving for T, Initial residual = 1.34564e-08, Final residual = 3.34097e-10, No Iterations 1
 T goes from min(T) [0 0 0 0 0 0 0] 7.7562e-21 to max(T) [0 0 0 0 0 0 0] 0.953421

ExecutionTime = 21.83 s  ClockTime = 385 s

Time = 0.14
Courant Number mean: 0.460273 max: 0.997323
DILUPBiCG:  Solving for T, Initial residual = 0.00680769, Final residual = 9.20919e-10, No Iterations 4
DILUPBiCG:  Solving for T, Initial residual = 2.93553e-05, Final residual = 1.89599e-09, No Iterations 2
DILUPBiCG:  Solving for T, Initial residual = 1.9339e-07, Final residual = 2.10794e-09, No Iterations 1
DILUPBiCG:  Solving for T, Initial residual = 1.43641e-08, Final residual = 3.57887e-10, No Iterations 1
 T goes from min(T) [0 0 0 0 0 0 0] 7.91149e-21 to max(T) [0 0 0 0 0 0 0] 0.953485

ExecutionTime = 22.38 s  ClockTime = 394 s

Time = 0.145
Courant Number mean: 0.459886 max: 0.998293
DILUPBiCG:  Solving for T, Initial residual = 0.00681301, Final residual = 1.36907e-10, No Iterations 4
DILUPBiCG:  Solving for T, Initial residual = 2.95454e-05, Final residual = 1.75687e-09, No Iterations 2
DILUPBiCG:  Solving for T, Initial residual = 2.00893e-07, Final residual = 2.15533e-09, No Iterations 1
DILUPBiCG:  Solving for T, Initial residual = 1.53185e-08, Final residual = 3.83288e-10, No Iterations 1
 T goes from min(T) [0 0 0 0 0 0 0] 8.45149e-21 to max(T) [0 0 0 0 0 0 0] 0.9539

ExecutionTime = 22.87 s  ClockTime = 403 s

Time = 0.15
Courant Number mean: 0.459486 max: 0.999258
DILUPBiCG:  Solving for T, Initial residual = 0.00681793, Final residual = 5.97533e-11, No Iterations 4
DILUPBiCG:  Solving for T, Initial residual = 2.97333e-05, Final residual = 1.63976e-09, No Iterations 2
DILUPBiCG:  Solving for T, Initial residual = 2.08587e-07, Final residual = 2.20189e-09, No Iterations 1
DILUPBiCG:  Solving for T, Initial residual = 1.63098e-08, Final residual = 4.1055e-10, No Iterations 1
 T goes from min(T) [0 0 0 0 0 0 0] 8.01654e-21 to max(T) [0 0 0 0 0 0 0] 0.954017

ExecutionTime = 23.37 s  ClockTime = 411 s

Time = 0.155
Courant Number mean: 0.459076 max: 1.00026
DILUPBiCG:  Solving for T, Initial residual = 0.00682247, Final residual = 4.08277e-11, No Iterations 4
DILUPBiCG:  Solving for T, Initial residual = 2.99214e-05, Final residual = 1.5407e-09, No Iterations 2
DILUPBiCG:  Solving for T, Initial residual = 2.16535e-07, Final residual = 2.24701e-09, No Iterations 1
DILUPBiCG:  Solving for T, Initial residual = 1.73493e-08, Final residual = 4.4031e-10, No Iterations 1
 T goes from min(T) [0 0 0 0 0 0 0] 7.73469e-21 to max(T) [0 0 0 0 0 0 0] 0.953532

ExecutionTime = 23.87 s  ClockTime = 420 s

Time = 0.16
Courant Number mean: 0.458659 max: 1.00122
DILUPBiCG:  Solving for T, Initial residual = 0.00682772, Final residual = 7.6637e-09, No Iterations 3
DILUPBiCG:  Solving for T, Initial residual = 3.01155e-05, Final residual = 1.456e-09, No Iterations 2
DILUPBiCG:  Solving for T, Initial residual = 2.24819e-07, Final residual = 2.28926e-09, No Iterations 1
DILUPBiCG:  Solving for T, Initial residual = 1.84308e-08, Final residual = 4.73297e-10, No Iterations 1
 T goes from min(T) [0 0 0 0 0 0 0] 7.83425e-21 to max(T) [0 0 0 0 0 0 0] 0.953616

ExecutionTime = 24.39 s  ClockTime = 429 s

Time = 0.165
Courant Number mean: 0.458232 max: 1.00214
DILUPBiCG:  Solving for T, Initial residual = 0.00683201, Final residual = 6.42826e-09, No Iterations 3
DILUPBiCG:  Solving for T, Initial residual = 3.03137e-05, Final residual = 1.38379e-09, No Iterations 2
DILUPBiCG:  Solving for T, Initial residual = 2.33279e-07, Final residual = 2.33068e-09, No Iterations 1
DILUPBiCG:  Solving for T, Initial residual = 1.95385e-08, Final residual = 5.0858e-10, No Iterations 1
 T goes from min(T) [0 0 0 0 0 0 0] 8.31548e-21 to max(T) [0 0 0 0 0 0 0] 0.953461

ExecutionTime = 24.93 s  ClockTime = 438 s

Time = 0.17
Courant Number mean: 0.457793 max: 1.00315
DILUPBiCG:  Solving for T, Initial residual = 0.00683749, Final residual = 5.70705e-09, No Iterations 3
DILUPBiCG:  Solving for T, Initial residual = 3.05148e-05, Final residual = 1.32178e-09, No Iterations 2
DILUPBiCG:  Solving for T, Initial residual = 2.41893e-07, Final residual = 2.36993e-09, No Iterations 1
DILUPBiCG:  Solving for T, Initial residual = 2.06765e-08, Final residual = 5.46616e-10, No Iterations 1
 T goes from min(T) [0 0 0 0 0 0 0] 8.05183e-21 to max(T) [0 0 0 0 0 0 0] 0.953593

ExecutionTime = 25.45 s  ClockTime = 447 s

Time = 0.175
Courant Number mean: 0.457342 max: 1.0041
DILUPBiCG:  Solving for T, Initial residual = 0.00684238, Final residual = 5.23393e-09, No Iterations 3
DILUPBiCG:  Solving for T, Initial residual = 3.07232e-05, Final residual = 1.26847e-09, No Iterations 2
DILUPBiCG:  Solving for T, Initial residual = 2.50841e-07, Final residual = 2.40783e-09, No Iterations 1
DILUPBiCG:  Solving for T, Initial residual = 2.1851e-08, Final residual = 5.86743e-10, No Iterations 1
 T goes from min(T) [0 0 0 0 0 0 0] 7.71835e-21 to max(T) [0 0 0 0 0 0 0] 0.953988

ExecutionTime = 25.96 s  ClockTime = 455 s

Time = 0.18
Courant Number mean: 0.456886 max: 1.00499
DILUPBiCG:  Solving for T, Initial residual = 0.00684706, Final residual = 4.89764e-09, No Iterations 3
DILUPBiCG:  Solving for T, Initial residual = 3.09337e-05, Final residual = 1.22485e-09, No Iterations 2
DILUPBiCG:  Solving for T, Initial residual = 2.60101e-07, Final residual = 2.44279e-09, No Iterations 1
DILUPBiCG:  Solving for T, Initial residual = 2.30603e-08, Final residual = 6.19174e-10, No Iterations 1
 T goes from min(T) [0 0 0 0 0 0 0] 7.76372e-21 to max(T) [0 0 0 0 0 0 0] 0.95409

ExecutionTime = 26.49 s  ClockTime = 464 s

Time = 0.185
Courant Number mean: 0.456421 max: 1.0058
DILUPBiCG:  Solving for T, Initial residual = 0.0068526, Final residual = 4.64588e-09, No Iterations 3
DILUPBiCG:  Solving for T, Initial residual = 3.1147e-05, Final residual = 1.18707e-09, No Iterations 2
DILUPBiCG:  Solving for T, Initial residual = 2.69498e-07, Final residual = 2.47747e-09, No Iterations 1
DILUPBiCG:  Solving for T, Initial residual = 2.429e-08, Final residual = 6.48902e-10, No Iterations 1
 T goes from min(T) [0 0 0 0 0 0 0] 8.18809e-21 to max(T) [0 0 0 0 0 0 0] 0.953487

ExecutionTime = 27 s  ClockTime = 473 s

Time = 0.19
Courant Number mean: 0.455946 max: 1.00657
DILUPBiCG:  Solving for T, Initial residual = 0.00685757, Final residual = 4.44996e-09, No Iterations 3
DILUPBiCG:  Solving for T, Initial residual = 3.13708e-05, Final residual = 1.15549e-09, No Iterations 2
DILUPBiCG:  Solving for T, Initial residual = 2.79017e-07, Final residual = 2.51094e-09, No Iterations 1
DILUPBiCG:  Solving for T, Initial residual = 2.55519e-08, Final residual = 6.78475e-10, No Iterations 1
 T goes from min(T) [0 0 0 0 0 0 0] 8.09212e-21 to max(T) [0 0 0 0 0 0 0] 0.953485

ExecutionTime = 27.52 s  ClockTime = 482 s

Time = 0.195
Courant Number mean: 0.455459 max: 1.00757
DILUPBiCG:  Solving for T, Initial residual = 0.00686247, Final residual = 4.2942e-09, No Iterations 3
DILUPBiCG:  Solving for T, Initial residual = 3.15908e-05, Final residual = 1.12865e-09, No Iterations 2
DILUPBiCG:  Solving for T, Initial residual = 2.88679e-07, Final residual = 2.54303e-09, No Iterations 1
DILUPBiCG:  Solving for T, Initial residual = 2.68145e-08, Final residual = 7.07724e-10, No Iterations 1
 T goes from min(T) [0 0 0 0 0 0 0] 7.70783e-21 to max(T) [0 0 0 0 0 0 0] 0.953982

ExecutionTime = 28.04 s  ClockTime = 491 s

Time = 0.2
Courant Number mean: 0.454968 max: 1.0085
DILUPBiCG:  Solving for T, Initial residual = 0.00686805, Final residual = 4.16703e-09, No Iterations 3
DILUPBiCG:  Solving for T, Initial residual = 3.18165e-05, Final residual = 1.10724e-09, No Iterations 2
DILUPBiCG:  Solving for T, Initial residual = 2.98568e-07, Final residual = 2.57837e-09, No Iterations 1
DILUPBiCG:  Solving for T, Initial residual = 2.81203e-08, Final residual = 7.42832e-10, No Iterations 1
 T goes from min(T) [0 0 0 0 0 0 0] 7.70026e-21 to max(T) [0 0 0 0 0 0 0] 0.954136

ExecutionTime = 28.55 s  ClockTime = 499 s

Time = 0.205
Courant Number mean: 0.45447 max: 1.00937
DILUPBiCG:  Solving for T, Initial residual = 0.0068726, Final residual = 4.06364e-09, No Iterations 3
DILUPBiCG:  Solving for T, Initial residual = 3.20526e-05, Final residual = 1.09025e-09, No Iterations 2
DILUPBiCG:  Solving for T, Initial residual = 3.08695e-07, Final residual = 2.61506e-09, No Iterations 1
DILUPBiCG:  Solving for T, Initial residual = 2.94305e-08, Final residual = 7.79866e-10, No Iterations 1
 T goes from min(T) [0 0 0 0 0 0 0] 8.06929e-21 to max(T) [0 0 0 0 0 0 0] 0.953713

ExecutionTime = 29.06 s  ClockTime = 508 s

Time = 0.21
Courant Number mean: 0.453964 max: 1.01017
DILUPBiCG:  Solving for T, Initial residual = 0.00687819, Final residual = 3.97907e-09, No Iterations 3
DILUPBiCG:  Solving for T, Initial residual = 3.22843e-05, Final residual = 1.10893e-09, No Iterations 2
DILUPBiCG:  Solving for T, Initial residual = 3.18972e-07, Final residual = 2.65438e-09, No Iterations 1
DILUPBiCG:  Solving for T, Initial residual = 3.07335e-08, Final residual = 8.15207e-10, No Iterations 1
 T goes from min(T) [0 0 0 0 0 0 0] 8.13846e-21 to max(T) [0 0 0 0 0 0 0] 0.953703

ExecutionTime = 29.58 s  ClockTime = 517 s

Time = 0.215
Courant Number mean: 0.453448 max: 1.0109
DILUPBiCG:  Solving for T, Initial residual = 0.00688364, Final residual = 3.90976e-09, No Iterations 3
DILUPBiCG:  Solving for T, Initial residual = 3.25244e-05, Final residual = 1.13575e-09, No Iterations 2
DILUPBiCG:  Solving for T, Initial residual = 3.29032e-07, Final residual = 2.69077e-09, No Iterations 1
DILUPBiCG:  Solving for T, Initial residual = 3.20615e-08, Final residual = 8.49401e-10, No Iterations 1
 T goes from min(T) [0 0 0 0 0 0 0] 7.70411e-21 to max(T) [0 0 0 0 0 0 0] 0.953348

ExecutionTime = 30.1 s  ClockTime = 526 s

Time = 0.22
Courant Number mean: 0.452924 max: 1.01156
DILUPBiCG:  Solving for T, Initial residual = 0.00688813, Final residual = 3.85477e-09, No Iterations 3
DILUPBiCG:  Solving for T, Initial residual = 3.27695e-05, Final residual = 1.15917e-09, No Iterations 2
DILUPBiCG:  Solving for T, Initial residual = 3.39135e-07, Final residual = 2.72734e-09, No Iterations 1
DILUPBiCG:  Solving for T, Initial residual = 3.33428e-08, Final residual = 8.85696e-10, No Iterations 1
 T goes from min(T) [0 0 0 0 0 0 0] 7.64472e-21 to max(T) [0 0 0 0 0 0 0] 0.953353

ExecutionTime = 30.64 s  ClockTime = 535 s

Time = 0.225
Courant Number mean: 0.452397 max: 1.01244
DILUPBiCG:  Solving for T, Initial residual = 0.00689402, Final residual = 3.81318e-09, No Iterations 3
DILUPBiCG:  Solving for T, Initial residual = 3.30137e-05, Final residual = 1.17836e-09, No Iterations 2
DILUPBiCG:  Solving for T, Initial residual = 3.49602e-07, Final residual = 2.76469e-09, No Iterations 1
DILUPBiCG:  Solving for T, Initial residual = 3.46673e-08, Final residual = 9.29596e-10, No Iterations 1
 T goes from min(T) [0 0 0 0 0 0 0] 7.95981e-21 to max(T) [0 0 0 0 0 0 0] 0.954044

ExecutionTime = 31.15 s  ClockTime = 544 s

Time = 0.23
Courant Number mean: 0.451863 max: 1.01329
DILUPBiCG:  Solving for T, Initial residual = 0.00689938, Final residual = 3.78248e-09, No Iterations 3
DILUPBiCG:  Solving for T, Initial residual = 3.32564e-05, Final residual = 1.19496e-09, No Iterations 2
DILUPBiCG:  Solving for T, Initial residual = 3.59769e-07, Final residual = 2.79983e-09, No Iterations 1
DILUPBiCG:  Solving for T, Initial residual = 3.59319e-08, Final residual = 9.71564e-10, No Iterations 1
 T goes from min(T) [0 0 0 0 0 0 0] 8.19167e-21 to max(T) [0 0 0 0 0 0 0] 0.95427

ExecutionTime = 31.66 s  ClockTime = 552 s

Time = 0.235
Courant Number mean: 0.451319 max: 1.01407
DILUPBiCG:  Solving for T, Initial residual = 0.00690397, Final residual = 3.7625e-09, No Iterations 3
DILUPBiCG:  Solving for T, Initial residual = 3.35144e-05, Final residual = 1.20907e-09, No Iterations 2
DILUPBiCG:  Solving for T, Initial residual = 3.69924e-07, Final residual = 2.83875e-09, No Iterations 1
DILUPBiCG:  Solving for T, Initial residual = 3.71623e-08, Final residual = 1.0112e-09, No Iterations 1
 T goes from min(T) [0 0 0 0 0 0 0] 7.70799e-21 to max(T) [0 0 0 0 0 0 0] 0.953869

ExecutionTime = 32.17 s  ClockTime = 561 s

Time = 0.24
Courant Number mean: 0.450767 max: 1.01478
DILUPBiCG:  Solving for T, Initial residual = 0.00690983, Final residual = 3.75286e-09, No Iterations 3
DILUPBiCG:  Solving for T, Initial residual = 3.37725e-05, Final residual = 1.2215e-09, No Iterations 2
DILUPBiCG:  Solving for T, Initial residual = 3.79761e-07, Final residual = 2.87467e-09, No Iterations 1
DILUPBiCG:  Solving for T, Initial residual = 3.83946e-08, Final residual = 1.04886e-09, No Iterations 1
 T goes from min(T) [0 0 0 0 0 0 0] 7.59783e-21 to max(T) [0 0 0 0 0 0 0] 0.953455

ExecutionTime = 32.69 s  ClockTime = 570 s

Time = 0.245
Courant Number mean: 0.450212 max: 1.01547
DILUPBiCG:  Solving for T, Initial residual = 0.00691551, Final residual = 3.7539e-09, No Iterations 3
DILUPBiCG:  Solving for T, Initial residual = 3.4031e-05, Final residual = 1.23053e-09, No Iterations 2
DILUPBiCG:  Solving for T, Initial residual = 3.89724e-07, Final residual = 2.91308e-09, No Iterations 1
DILUPBiCG:  Solving for T, Initial residual = 3.95639e-08, Final residual = 1.07527e-09, No Iterations 1
 T goes from min(T) [0 0 0 0 0 0 0] 7.86027e-21 to max(T) [0 0 0 0 0 0 0] 0.953445

ExecutionTime = 33.22 s  ClockTime = 579 s

Time = 0.25
Courant Number mean: 0.449651 max: 1.01624
DILUPBiCG:  Solving for T, Initial residual = 0.00692048, Final residual = 3.76599e-09, No Iterations 3
DILUPBiCG:  Solving for T, Initial residual = 3.42996e-05, Final residual = 1.23759e-09, No Iterations 2
DILUPBiCG:  Solving for T, Initial residual = 3.99903e-07, Final residual = 2.95361e-09, No Iterations 1
DILUPBiCG:  Solving for T, Initial residual = 4.07481e-08, Final residual = 1.09762e-09, No Iterations 1
 T goes from min(T) [0 0 0 0 0 0 0] 8.25254e-21 to max(T) [0 0 0 0 0 0 0] 0.953488

ExecutionTime = 33.73 s  ClockTime = 588 s

Time = 0.255
Courant Number mean: 0.449082 max: 1.01695
DILUPBiCG:  Solving for T, Initial residual = 0.00692642, Final residual = 3.79017e-09, No Iterations 3
DILUPBiCG:  Solving for T, Initial residual = 3.4562e-05, Final residual = 1.24146e-09, No Iterations 2
DILUPBiCG:  Solving for T, Initial residual = 4.09479e-07, Final residual = 2.99134e-09, No Iterations 1
DILUPBiCG:  Solving for T, Initial residual = 4.18633e-08, Final residual = 1.11528e-09, No Iterations 1
 T goes from min(T) [0 0 0 0 0 0 0] 7.72026e-21 to max(T) [0 0 0 0 0 0 0] 0.953896

ExecutionTime = 34.24 s  ClockTime = 596 s

Time = 0.26
Courant Number mean: 0.448503 max: 1.01759
DILUPBiCG:  Solving for T, Initial residual = 0.00693261, Final residual = 3.82599e-09, No Iterations 3
DILUPBiCG:  Solving for T, Initial residual = 3.48275e-05, Final residual = 1.24393e-09, No Iterations 2
DILUPBiCG:  Solving for T, Initial residual = 4.19149e-07, Final residual = 3.0355e-09, No Iterations 1
DILUPBiCG:  Solving for T, Initial residual = 4.29267e-08, Final residual = 1.12789e-09, No Iterations 1
 T goes from min(T) [0 0 0 0 0 0 0] 7.56037e-21 to max(T) [0 0 0 0 0 0 0] 0.954304

ExecutionTime = 34.76 s  ClockTime = 605 s

Time = 0.265
Courant Number mean: 0.447921 max: 1.01819
DILUPBiCG:  Solving for T, Initial residual = 0.00693695, Final residual = 3.87447e-09, No Iterations 3
DILUPBiCG:  Solving for T, Initial residual = 3.51068e-05, Final residual = 1.24154e-09, No Iterations 2
DILUPBiCG:  Solving for T, Initial residual = 4.28527e-07, Final residual = 3.07863e-09, No Iterations 1
DILUPBiCG:  Solving for T, Initial residual = 4.39881e-08, Final residual = 1.13781e-09, No Iterations 1
 T goes from min(T) [0 0 0 0 0 0 0] 7.77142e-21 to max(T) [0 0 0 0 0 0 0] 0.954119

ExecutionTime = 35.26 s  ClockTime = 613 s

Time = 0.27
Courant Number mean: 0.447336 max: 1.01894
DILUPBiCG:  Solving for T, Initial residual = 0.00694331, Final residual = 3.9379e-09, No Iterations 3
DILUPBiCG:  Solving for T, Initial residual = 3.5385e-05, Final residual = 1.23596e-09, No Iterations 2
DILUPBiCG:  Solving for T, Initial residual = 4.38137e-07, Final residual = 3.12426e-09, No Iterations 1
DILUPBiCG:  Solving for T, Initial residual = 4.49522e-08, Final residual = 1.14297e-09, No Iterations 1
 T goes from min(T) [0 0 0 0 0 0 0] 8.32169e-21 to max(T) [0 0 0 0 0 0 0] 0.953735

ExecutionTime = 35.77 s  ClockTime = 622 s

Time = 0.275
Courant Number mean: 0.446743 max: 1.0197
DILUPBiCG:  Solving for T, Initial residual = 0.00694918, Final residual = 4.01596e-09, No Iterations 3
DILUPBiCG:  Solving for T, Initial residual = 3.56626e-05, Final residual = 1.22633e-09, No Iterations 2
DILUPBiCG:  Solving for T, Initial residual = 4.47556e-07, Final residual = 3.17037e-09, No Iterations 1
DILUPBiCG:  Solving for T, Initial residual = 4.59087e-08, Final residual = 1.1447e-09, No Iterations 1
 T goes from min(T) [0 0 0 0 0 0 0] 7.74155e-21 to max(T) [0 0 0 0 0 0 0] 0.953544

ExecutionTime = 36.28 s  ClockTime = 631 s

Time = 0.28
Courant Number mean: 0.446143 max: 1.02039
DILUPBiCG:  Solving for T, Initial residual = 0.00695452, Final residual = 4.11211e-09, No Iterations 3
DILUPBiCG:  Solving for T, Initial residual = 3.59406e-05, Final residual = 1.21144e-09, No Iterations 2
DILUPBiCG:  Solving for T, Initial residual = 4.56196e-07, Final residual = 3.21415e-09, No Iterations 1
DILUPBiCG:  Solving for T, Initial residual = 4.67944e-08, Final residual = 1.14231e-09, No Iterations 1
 T goes from min(T) [0 0 0 0 0 0 0] 7.53294e-21 to max(T) [0 0 0 0 0 0 0] 0.953316

ExecutionTime = 36.79 s  ClockTime = 639 s

Time = 0.285
Courant Number mean: 0.445536 max: 1.02101
DILUPBiCG:  Solving for T, Initial residual = 0.00695975, Final residual = 4.22663e-09, No Iterations 3
DILUPBiCG:  Solving for T, Initial residual = 3.62303e-05, Final residual = 1.20559e-09, No Iterations 2
DILUPBiCG:  Solving for T, Initial residual = 4.64869e-07, Final residual = 3.26729e-09, No Iterations 1
DILUPBiCG:  Solving for T, Initial residual = 4.75749e-08, Final residual = 1.13577e-09, No Iterations 1
 T goes from min(T) [0 0 0 0 0 0 0] 7.69387e-21 to max(T) [0 0 0 0 0 0 0] 0.953155

ExecutionTime = 37.32 s  ClockTime = 649 s

Time = 0.29
Courant Number mean: 0.444928 max: 1.02156
DILUPBiCG:  Solving for T, Initial residual = 0.00696683, Final residual = 4.36156e-09, No Iterations 3
DILUPBiCG:  Solving for T, Initial residual = 3.65241e-05, Final residual = 1.23943e-09, No Iterations 2
DILUPBiCG:  Solving for T, Initial residual = 4.73298e-07, Final residual = 3.32102e-09, No Iterations 1
DILUPBiCG:  Solving for T, Initial residual = 4.8388e-08, Final residual = 1.12772e-09, No Iterations 1
 T goes from min(T) [0 0 0 0 0 0 0] 8.22863e-21 to max(T) [0 0 0 0 0 0 0] 0.95391

ExecutionTime = 37.89 s  ClockTime = 658 s

Time = 0.295
Courant Number mean: 0.444314 max: 1.02205
DILUPBiCG:  Solving for T, Initial residual = 0.00697247, Final residual = 4.51794e-09, No Iterations 3
DILUPBiCG:  Solving for T, Initial residual = 3.68135e-05, Final residual = 1.28002e-09, No Iterations 2
DILUPBiCG:  Solving for T, Initial residual = 4.81917e-07, Final residual = 3.37636e-09, No Iterations 1
DILUPBiCG:  Solving for T, Initial residual = 4.90912e-08, Final residual = 1.11678e-09, No Iterations 1
 T goes from min(T) [0 0 0 0 0 0 0] 7.77242e-21 to max(T) [0 0 0 0 0 0 0] 0.954099

ExecutionTime = 38.41 s  ClockTime = 667 s

Time = 0.3
Courant Number mean: 0.443691 max: 1.02268
DILUPBiCG:  Solving for T, Initial residual = 0.00697769, Final residual = 4.69964e-09, No Iterations 3
DILUPBiCG:  Solving for T, Initial residual = 3.71218e-05, Final residual = 1.32414e-09, No Iterations 2
DILUPBiCG:  Solving for T, Initial residual = 4.90347e-07, Final residual = 3.43544e-09, No Iterations 1
DILUPBiCG:  Solving for T, Initial residual = 4.97691e-08, Final residual = 1.10499e-09, No Iterations 1
 T goes from min(T) [0 0 0 0 0 0 0] 7.51613e-21 to max(T) [0 0 0 0 0 0 0] 0.95408

ExecutionTime = 38.93 s  ClockTime = 676 s

Time = 0.305
Courant Number mean: 0.443063 max: 1.02334
DILUPBiCG:  Solving for T, Initial residual = 0.00698483, Final residual = 4.9079e-09, No Iterations 3
DILUPBiCG:  Solving for T, Initial residual = 3.7418e-05, Final residual = 1.37562e-09, No Iterations 2
DILUPBiCG:  Solving for T, Initial residual = 4.98258e-07, Final residual = 3.49503e-09, No Iterations 1
DILUPBiCG:  Solving for T, Initial residual = 5.04227e-08, Final residual = 1.09334e-09, No Iterations 1
 T goes from min(T) [0 0 0 0 0 0 0] 7.62818e-21 to max(T) [0 0 0 0 0 0 0] 0.954323

ExecutionTime = 39.44 s  ClockTime = 685 s

Time = 0.31
Courant Number mean: 0.442432 max: 1.02394
DILUPBiCG:  Solving for T, Initial residual = 0.00699099, Final residual = 5.14252e-09, No Iterations 3
DILUPBiCG:  Solving for T, Initial residual = 3.77027e-05, Final residual = 1.43411e-09, No Iterations 2
DILUPBiCG:  Solving for T, Initial residual = 5.05774e-07, Final residual = 3.56311e-09, No Iterations 1
DILUPBiCG:  Solving for T, Initial residual = 5.09319e-08, Final residual = 1.08034e-09, No Iterations 1
 T goes from min(T) [0 0 0 0 0 0 0] 8.11245e-21 to max(T) [0 0 0 0 0 0 0] 0.954034

ExecutionTime = 40 s  ClockTime = 694 s

Time = 0.315
Courant Number mean: 0.441797 max: 1.02447
DILUPBiCG:  Solving for T, Initial residual = 0.00699665, Final residual = 5.40623e-09, No Iterations 3
DILUPBiCG:  Solving for T, Initial residual = 3.8018e-05, Final residual = 1.49921e-09, No Iterations 2
DILUPBiCG:  Solving for T, Initial residual = 5.13276e-07, Final residual = 3.63597e-09, No Iterations 1
DILUPBiCG:  Solving for T, Initial residual = 5.14585e-08, Final residual = 1.06909e-09, No Iterations 1
 T goes from min(T) [0 0 0 0 0 0 0] 7.81329e-21 to max(T) [0 0 0 0 0 0 0] 0.953749

ExecutionTime = 40.52 s  ClockTime = 703 s

Time = 0.32
Courant Number mean: 0.441155 max: 1.02494
DILUPBiCG:  Solving for T, Initial residual = 0.00700276, Final residual = 5.69675e-09, No Iterations 3
DILUPBiCG:  Solving for T, Initial residual = 3.83358e-05, Final residual = 1.57546e-09, No Iterations 2
DILUPBiCG:  Solving for T, Initial residual = 5.20623e-07, Final residual = 3.71267e-09, No Iterations 1
DILUPBiCG:  Solving for T, Initial residual = 5.1924e-08, Final residual = 1.05824e-09, No Iterations 1
 T goes from min(T) [0 0 0 0 0 0 0] 7.51035e-21 to max(T) [0 0 0 0 0 0 0] 0.953522

ExecutionTime = 41.04 s  ClockTime = 712 s

Time = 0.325
Courant Number mean: 0.440506 max: 1.02535
DILUPBiCG:  Solving for T, Initial residual = 0.00700996, Final residual = 6.0066e-09, No Iterations 3
DILUPBiCG:  Solving for T, Initial residual = 3.86446e-05, Final residual = 1.66135e-09, No Iterations 2
DILUPBiCG:  Solving for T, Initial residual = 5.28407e-07, Final residual = 3.79427e-09, No Iterations 1
DILUPBiCG:  Solving for T, Initial residual = 5.23762e-08, Final residual = 1.04702e-09, No Iterations 1
 T goes from min(T) [0 0 0 0 0 0 0] 7.57482e-21 to max(T) [0 0 0 0 0 0 0] 0.953099

ExecutionTime = 41.56 s  ClockTime = 721 s

Time = 0.33
Courant Number mean: 0.439853 max: 1.02588
DILUPBiCG:  Solving for T, Initial residual = 0.0070166, Final residual = 6.33467e-09, No Iterations 3
DILUPBiCG:  Solving for T, Initial residual = 3.89511e-05, Final residual = 1.76009e-09, No Iterations 2
DILUPBiCG:  Solving for T, Initial residual = 5.35801e-07, Final residual = 3.88147e-09, No Iterations 1
DILUPBiCG:  Solving for T, Initial residual = 5.27788e-08, Final residual = 1.03816e-09, No Iterations 1
 T goes from min(T) [0 0 0 0 0 0 0] 8.01007e-21 to max(T) [0 0 0 0 0 0 0] 0.953788

ExecutionTime = 42.07 s  ClockTime = 729 s

Time = 0.335
Courant Number mean: 0.439198 max: 1.02639
DILUPBiCG:  Solving for T, Initial residual = 0.00702205, Final residual = 6.66548e-09, No Iterations 3
DILUPBiCG:  Solving for T, Initial residual = 3.92672e-05, Final residual = 1.87512e-09, No Iterations 2
DILUPBiCG:  Solving for T, Initial residual = 5.42925e-07, Final residual = 3.97296e-09, No Iterations 1
DILUPBiCG:  Solving for T, Initial residual = 5.31345e-08, Final residual = 1.03061e-09, No Iterations 1
 T goes from min(T) [0 0 0 0 0 0 0] 7.86453e-21 to max(T) [0 0 0 0 0 0 0] 0.952969

ExecutionTime = 42.59 s  ClockTime = 738 s

Time = 0.34
Courant Number mean: 0.438538 max: 1.0269
DILUPBiCG:  Solving for T, Initial residual = 0.00702927, Final residual = 6.98389e-09, No Iterations 3
DILUPBiCG:  Solving for T, Initial residual = 3.95941e-05, Final residual = 2.00104e-09, No Iterations 2
DILUPBiCG:  Solving for T, Initial residual = 5.48956e-07, Final residual = 4.06609e-09, No Iterations 1
DILUPBiCG:  Solving for T, Initial residual = 5.34033e-08, Final residual = 1.02379e-09, No Iterations 1
 T goes from min(T) [0 0 0 0 0 0 0] 7.51601e-21 to max(T) [0 0 0 0 0 0 0] 0.953343

ExecutionTime = 43.11 s  ClockTime = 746 s

Time = 0.345
Courant Number mean: 0.43787 max: 1.02734
DILUPBiCG:  Solving for T, Initial residual = 0.00703751, Final residual = 7.27118e-09, No Iterations 3
DILUPBiCG:  Solving for T, Initial residual = 3.99165e-05, Final residual = 2.13661e-09, No Iterations 2
DILUPBiCG:  Solving for T, Initial residual = 5.55276e-07, Final residual = 4.16585e-09, No Iterations 1
DILUPBiCG:  Solving for T, Initial residual = 5.36721e-08, Final residual = 1.02017e-09, No Iterations 1
 T goes from min(T) [0 0 0 0 0 0 0] 7.53418e-21 to max(T) [0 0 0 0 0 0 0] 0.953308

ExecutionTime = 43.62 s  ClockTime = 755 s

Time = 0.35
Courant Number mean: 0.437198 max: 1.02781
DILUPBiCG:  Solving for T, Initial residual = 0.00704411, Final residual = 7.51362e-09, No Iterations 3
DILUPBiCG:  Solving for T, Initial residual = 4.02329e-05, Final residual = 2.27495e-09, No Iterations 2
DILUPBiCG:  Solving for T, Initial residual = 5.61884e-07, Final residual = 4.26808e-09, No Iterations 1
DILUPBiCG:  Solving for T, Initial residual = 5.39028e-08, Final residual = 1.01675e-09, No Iterations 1
 T goes from min(T) [0 0 0 0 0 0 0] 7.92191e-21 to max(T) [0 0 0 0 0 0 0] 0.953893

ExecutionTime = 44.12 s  ClockTime = 763 s

Time = 0.355
Courant Number mean: 0.436525 max: 1.02831
DILUPBiCG:  Solving for T, Initial residual = 0.00704979, Final residual = 7.73001e-09, No Iterations 3
DILUPBiCG:  Solving for T, Initial residual = 4.0577e-05, Final residual = 2.41466e-09, No Iterations 2
DILUPBiCG:  Solving for T, Initial residual = 5.6865e-07, Final residual = 4.37621e-09, No Iterations 1
DILUPBiCG:  Solving for T, Initial residual = 5.40657e-08, Final residual = 1.0123e-09, No Iterations 1
 T goes from min(T) [0 0 0 0 0 0 0] 7.92641e-21 to max(T) [0 0 0 0 0 0 0] 0.953984

ExecutionTime = 44.62 s  ClockTime = 771 s

Time = 0.36
Courant Number mean: 0.435847 max: 1.02876
DILUPBiCG:  Solving for T, Initial residual = 0.00705816, Final residual = 8.18659e-09, No Iterations 3
DILUPBiCG:  Solving for T, Initial residual = 4.09134e-05, Final residual = 2.55573e-09, No Iterations 2
DILUPBiCG:  Solving for T, Initial residual = 5.74922e-07, Final residual = 4.48902e-09, No Iterations 1
DILUPBiCG:  Solving for T, Initial residual = 5.41767e-08, Final residual = 1.00986e-09, No Iterations 1
 T goes from min(T) [0 0 0 0 0 0 0] 7.53337e-21 to max(T) [0 0 0 0 0 0 0] 0.953994

ExecutionTime = 45.12 s  ClockTime = 778 s

Time = 0.365
Courant Number mean: 0.435164 max: 1.02913
DILUPBiCG:  Solving for T, Initial residual = 0.00706608, Final residual = 9.77011e-09, No Iterations 3
DILUPBiCG:  Solving for T, Initial residual = 4.12344e-05, Final residual = 2.69225e-09, No Iterations 2
DILUPBiCG:  Solving for T, Initial residual = 5.81109e-07, Final residual = 4.60904e-09, No Iterations 1
DILUPBiCG:  Solving for T, Initial residual = 5.4296e-08, Final residual = 1.0103e-09, No Iterations 1
 T goes from min(T) [0 0 0 0 0 0 0] 7.50655e-21 to max(T) [0 0 0 0 0 0 0] 0.954284

ExecutionTime = 45.65 s  ClockTime = 786 s

Time = 0.37
Courant Number mean: 0.434473 max: 1.02943
DILUPBiCG:  Solving for T, Initial residual = 0.00707343, Final residual = 1.2476e-10, No Iterations 4
DILUPBiCG:  Solving for T, Initial residual = 4.15624e-05, Final residual = 2.83165e-09, No Iterations 2
DILUPBiCG:  Solving for T, Initial residual = 5.86547e-07, Final residual = 4.73282e-09, No Iterations 1
DILUPBiCG:  Solving for T, Initial residual = 5.4257e-08, Final residual = 1.01089e-09, No Iterations 1
 T goes from min(T) [0 0 0 0 0 0 0] 7.8483e-21 to max(T) [0 0 0 0 0 0 0] 0.954106

ExecutionTime = 46.2 s  ClockTime = 794 s

Time = 0.375
Courant Number mean: 0.433782 max: 1.02977
DILUPBiCG:  Solving for T, Initial residual = 0.0070802, Final residual = 1.11173e-10, No Iterations 4
DILUPBiCG:  Solving for T, Initial residual = 4.19068e-05, Final residual = 2.96712e-09, No Iterations 2
DILUPBiCG:  Solving for T, Initial residual = 5.91862e-07, Final residual = 4.86008e-09, No Iterations 1
DILUPBiCG:  Solving for T, Initial residual = 5.4308e-08, Final residual = 1.0141e-09, No Iterations 1
 T goes from min(T) [0 0 0 0 0 0 0] 7.99914e-21 to max(T) [0 0 0 0 0 0 0] 0.954281

ExecutionTime = 46.7 s  ClockTime = 802 s

Time = 0.38
Courant Number mean: 0.433088 max: 1.03026
DILUPBiCG:  Solving for T, Initial residual = 0.00708913, Final residual = 1.06213e-10, No Iterations 4
DILUPBiCG:  Solving for T, Initial residual = 4.22513e-05, Final residual = 3.09741e-09, No Iterations 2
DILUPBiCG:  Solving for T, Initial residual = 5.97668e-07, Final residual = 4.99219e-09, No Iterations 1
DILUPBiCG:  Solving for T, Initial residual = 5.42947e-08, Final residual = 1.01831e-09, No Iterations 1
 T goes from min(T) [0 0 0 0 0 0 0] 7.56266e-21 to max(T) [0 0 0 0 0 0 0] 0.954336

ExecutionTime = 47.26 s  ClockTime = 810 s

Time = 0.385
Courant Number mean: 0.432388 max: 1.03067
DILUPBiCG:  Solving for T, Initial residual = 0.00709783, Final residual = 1.04397e-10, No Iterations 4
DILUPBiCG:  Solving for T, Initial residual = 4.25945e-05, Final residual = 3.22493e-09, No Iterations 2
DILUPBiCG:  Solving for T, Initial residual = 6.02909e-07, Final residual = 5.12769e-09, No Iterations 1
DILUPBiCG:  Solving for T, Initial residual = 5.41887e-08, Final residual = 1.02124e-09, No Iterations 1
 T goes from min(T) [0 0 0 0 0 0 0] 7.49217e-21 to max(T) [0 0 0 0 0 0 0] 0.954026

ExecutionTime = 47.76 s  ClockTime = 818 s

Time = 0.39
Courant Number mean: 0.431682 max: 1.03102
DILUPBiCG:  Solving for T, Initial residual = 0.00710667, Final residual = 1.04041e-10, No Iterations 4
DILUPBiCG:  Solving for T, Initial residual = 4.29339e-05, Final residual = 3.34919e-09, No Iterations 2
DILUPBiCG:  Solving for T, Initial residual = 6.08952e-07, Final residual = 5.27512e-09, No Iterations 1
DILUPBiCG:  Solving for T, Initial residual = 5.40431e-08, Final residual = 1.02399e-09, No Iterations 1
 T goes from min(T) [0 0 0 0 0 0 0] 7.78946e-21 to max(T) [0 0 0 0 0 0 0] 0.954359

ExecutionTime = 48.29 s  ClockTime = 826 s

Time = 0.395
Courant Number mean: 0.430974 max: 1.0313
DILUPBiCG:  Solving for T, Initial residual = 0.00711434, Final residual = 1.04522e-10, No Iterations 4
DILUPBiCG:  Solving for T, Initial residual = 4.3287e-05, Final residual = 3.46897e-09, No Iterations 2
DILUPBiCG:  Solving for T, Initial residual = 6.14601e-07, Final residual = 5.42419e-09, No Iterations 1
DILUPBiCG:  Solving for T, Initial residual = 5.39146e-08, Final residual = 1.02931e-09, No Iterations 1
 T goes from min(T) [0 0 0 0 0 0 0] 8.08286e-21 to max(T) [0 0 0 0 0 0 0] 0.95424

ExecutionTime = 48.82 s  ClockTime = 834 s

Time = 0.4
Courant Number mean: 0.430263 max: 1.03151
DILUPBiCG:  Solving for T, Initial residual = 0.00712299, Final residual = 1.05387e-10, No Iterations 4
DILUPBiCG:  Solving for T, Initial residual = 4.36379e-05, Final residual = 3.58449e-09, No Iterations 2
DILUPBiCG:  Solving for T, Initial residual = 6.19516e-07, Final residual = 5.58e-09, No Iterations 1
DILUPBiCG:  Solving for T, Initial residual = 5.37579e-08, Final residual = 1.03642e-09, No Iterations 1
 T goes from min(T) [0 0 0 0 0 0 0] 7.604e-21 to max(T) [0 0 0 0 0 0 0] 0.954143

ExecutionTime = 49.34 s  ClockTime = 842 s

Time = 0.405
Courant Number mean: 0.42955 max: 1.0317
DILUPBiCG:  Solving for T, Initial residual = 0.00713362, Final residual = 1.0654e-10, No Iterations 4
DILUPBiCG:  Solving for T, Initial residual = 4.39827e-05, Final residual = 3.69805e-09, No Iterations 2
DILUPBiCG:  Solving for T, Initial residual = 6.2416e-07, Final residual = 5.74092e-09, No Iterations 1
DILUPBiCG:  Solving for T, Initial residual = 5.34683e-08, Final residual = 1.04288e-09, No Iterations 1
 T goes from min(T) [0 0 0 0 0 0 0] 7.49113e-21 to max(T) [0 0 0 0 0 0 0] 0.954352

ExecutionTime = 49.89 s  ClockTime = 850 s

Time = 0.41
Courant Number mean: 0.428831 max: 1.03209
DILUPBiCG:  Solving for T, Initial residual = 0.00714409, Final residual = 1.07865e-10, No Iterations 4
DILUPBiCG:  Solving for T, Initial residual = 4.43277e-05, Final residual = 3.80901e-09, No Iterations 2
DILUPBiCG:  Solving for T, Initial residual = 6.2907e-07, Final residual = 5.90108e-09, No Iterations 1
DILUPBiCG:  Solving for T, Initial residual = 5.32296e-08, Final residual = 1.05111e-09, No Iterations 1
 T goes from min(T) [0 0 0 0 0 0 0] 7.74546e-21 to max(T) [0 0 0 0 0 0 0] 0.954128

ExecutionTime = 50.42 s  ClockTime = 858 s

Time = 0.415
Courant Number mean: 0.428105 max: 1.03241
DILUPBiCG:  Solving for T, Initial residual = 0.00715262, Final residual = 1.09338e-10, No Iterations 4
DILUPBiCG:  Solving for T, Initial residual = 4.46914e-05, Final residual = 3.91764e-09, No Iterations 2
DILUPBiCG:  Solving for T, Initial residual = 6.33885e-07, Final residual = 6.06826e-09, No Iterations 1
DILUPBiCG:  Solving for T, Initial residual = 5.29985e-08, Final residual = 1.0604e-09, No Iterations 1
 T goes from min(T) [0 0 0 0 0 0 0] 8.17761e-21 to max(T) [0 0 0 0 0 0 0] 0.954135

ExecutionTime = 50.93 s  ClockTime = 865 s

Time = 0.42
Courant Number mean: 0.42738 max: 1.03267
DILUPBiCG:  Solving for T, Initial residual = 0.00716258, Final residual = 1.10883e-10, No Iterations 4
DILUPBiCG:  Solving for T, Initial residual = 4.50466e-05, Final residual = 4.0242e-09, No Iterations 2
DILUPBiCG:  Solving for T, Initial residual = 6.38582e-07, Final residual = 6.24739e-09, No Iterations 1
DILUPBiCG:  Solving for T, Initial residual = 5.27331e-08, Final residual = 1.06992e-09, No Iterations 1
 T goes from min(T) [0 0 0 0 0 0 0] 7.6574e-21 to max(T) [0 0 0 0 0 0 0] 0.954295

ExecutionTime = 51.47 s  ClockTime = 874 s

Time = 0.425
Courant Number mean: 0.426652 max: 1.03286
DILUPBiCG:  Solving for T, Initial residual = 0.00717458, Final residual = 1.12571e-10, No Iterations 4
DILUPBiCG:  Solving for T, Initial residual = 4.54121e-05, Final residual = 4.13193e-09, No Iterations 2
DILUPBiCG:  Solving for T, Initial residual = 6.43096e-07, Final residual = 6.4262e-09, No Iterations 1
DILUPBiCG:  Solving for T, Initial residual = 5.23633e-08, Final residual = 1.07762e-09, No Iterations 1
 T goes from min(T) [0 0 0 0 0 0 0] 7.50341e-21 to max(T) [0 0 0 0 0 0 0] 0.954036

ExecutionTime = 52.02 s  ClockTime = 882 s

Time = 0.43
Courant Number mean: 0.425918 max: 1.03301
DILUPBiCG:  Solving for T, Initial residual = 0.00718651, Final residual = 1.14291e-10, No Iterations 4
DILUPBiCG:  Solving for T, Initial residual = 4.57876e-05, Final residual = 4.23739e-09, No Iterations 2
DILUPBiCG:  Solving for T, Initial residual = 6.48617e-07, Final residual = 6.61249e-09, No Iterations 1
DILUPBiCG:  Solving for T, Initial residual = 5.19698e-08, Final residual = 1.08449e-09, No Iterations 1
 T goes from min(T) [0 0 0 0 0 0 0] 7.71629e-21 to max(T) [0 0 0 0 0 0 0] 0.953896

ExecutionTime = 52.53 s  ClockTime = 889 s

Time = 0.435
Courant Number mean: 0.425179 max: 1.03327
DILUPBiCG:  Solving for T, Initial residual = 0.00719705, Final residual = 1.16212e-10, No Iterations 4
DILUPBiCG:  Solving for T, Initial residual = 4.61351e-05, Final residual = 4.34321e-09, No Iterations 2
DILUPBiCG:  Solving for T, Initial residual = 6.53785e-07, Final residual = 6.81324e-09, No Iterations 1
DILUPBiCG:  Solving for T, Initial residual = 5.15988e-08, Final residual = 1.09394e-09, No Iterations 1
 T goes from min(T) [0 0 0 0 0 0 0] 8.2833e-21 to max(T) [0 0 0 0 0 0 0] 0.954087

ExecutionTime = 53.07 s  ClockTime = 898 s

Time = 0.44
Courant Number mean: 0.424439 max: 1.03346
DILUPBiCG:  Solving for T, Initial residual = 0.00720856, Final residual = 1.18417e-10, No Iterations 4
DILUPBiCG:  Solving for T, Initial residual = 4.64973e-05, Final residual = 4.44922e-09, No Iterations 2
DILUPBiCG:  Solving for T, Initial residual = 6.58977e-07, Final residual = 7.01678e-09, No Iterations 1
DILUPBiCG:  Solving for T, Initial residual = 5.11924e-08, Final residual = 1.10317e-09, No Iterations 1
 T goes from min(T) [0 0 0 0 0 0 0] 7.72274e-21 to max(T) [0 0 0 0 0 0 0] 0.953871

ExecutionTime = 53.58 s  ClockTime = 905 s

Time = 0.445
Courant Number mean: 0.423696 max: 1.03359
DILUPBiCG:  Solving for T, Initial residual = 0.00721987, Final residual = 1.20898e-10, No Iterations 4
DILUPBiCG:  Solving for T, Initial residual = 4.68819e-05, Final residual = 4.5559e-09, No Iterations 2
DILUPBiCG:  Solving for T, Initial residual = 6.64012e-07, Final residual = 7.21717e-09, No Iterations 1
DILUPBiCG:  Solving for T, Initial residual = 5.0777e-08, Final residual = 1.11227e-09, No Iterations 1
 T goes from min(T) [0 0 0 0 0 0 0] 7.5289e-21 to max(T) [0 0 0 0 0 0 0] 0.95327

ExecutionTime = 54.1 s  ClockTime = 913 s

Time = 0.45
Courant Number mean: 0.422951 max: 1.03369
DILUPBiCG:  Solving for T, Initial residual = 0.00723263, Final residual = 1.23854e-10, No Iterations 4
DILUPBiCG:  Solving for T, Initial residual = 4.7249e-05, Final residual = 4.66356e-09, No Iterations 2
DILUPBiCG:  Solving for T, Initial residual = 6.68344e-07, Final residual = 7.41929e-09, No Iterations 1
DILUPBiCG:  Solving for T, Initial residual = 5.04216e-08, Final residual = 1.12333e-09, No Iterations 1
 T goes from min(T) [0 0 0 0 0 0 0] 7.70194e-21 to max(T) [0 0 0 0 0 0 0] 0.953445

ExecutionTime = 54.62 s  ClockTime = 921 s

Time = 0.455
Courant Number mean: 0.422199 max: 1.0339
DILUPBiCG:  Solving for T, Initial residual = 0.00724564, Final residual = 1.27552e-10, No Iterations 4
DILUPBiCG:  Solving for T, Initial residual = 4.76133e-05, Final residual = 4.77445e-09, No Iterations 2
DILUPBiCG:  Solving for T, Initial residual = 6.73105e-07, Final residual = 7.63346e-09, No Iterations 1
DILUPBiCG:  Solving for T, Initial residual = 5e-08, Final residual = 1.13331e-09, No Iterations 1
 T goes from min(T) [0 0 0 0 0 0 0] 8.24933e-21 to max(T) [0 0 0 0 0 0 0] 0.953352

ExecutionTime = 55.15 s  ClockTime = 929 s

Time = 0.46
Courant Number mean: 0.421445 max: 1.03413
DILUPBiCG:  Solving for T, Initial residual = 0.00725925, Final residual = 1.32415e-10, No Iterations 4
DILUPBiCG:  Solving for T, Initial residual = 4.80113e-05, Final residual = 4.88435e-09, No Iterations 2
DILUPBiCG:  Solving for T, Initial residual = 6.78713e-07, Final residual = 7.84918e-09, No Iterations 1
DILUPBiCG:  Solving for T, Initial residual = 4.95843e-08, Final residual = 1.14225e-09, No Iterations 1
 T goes from min(T) [0 0 0 0 0 0 0] 7.79989e-21 to max(T) [0 0 0 0 0 0 0] 0.953094

ExecutionTime = 55.7 s  ClockTime = 937 s

Time = 0.465
Courant Number mean: 0.420692 max: 1.0343
DILUPBiCG:  Solving for T, Initial residual = 0.00727071, Final residual = 1.38958e-10, No Iterations 4
DILUPBiCG:  Solving for T, Initial residual = 4.83783e-05, Final residual = 4.99462e-09, No Iterations 2
DILUPBiCG:  Solving for T, Initial residual = 6.83456e-07, Final residual = 8.05802e-09, No Iterations 1
DILUPBiCG:  Solving for T, Initial residual = 4.91793e-08, Final residual = 1.1505e-09, No Iterations 1
 T goes from min(T) [0 0 0 0 0 0 0] 7.5676e-21 to max(T) [0 0 0 0 0 0 0] 0.952846

ExecutionTime = 56.24 s  ClockTime = 945 s

Time = 0.47
Courant Number mean: 0.419934 max: 1.0344
DILUPBiCG:  Solving for T, Initial residual = 0.00728286, Final residual = 1.48671e-10, No Iterations 4
DILUPBiCG:  Solving for T, Initial residual = 4.87544e-05, Final residual = 5.11029e-09, No Iterations 2
DILUPBiCG:  Solving for T, Initial residual = 6.8794e-07, Final residual = 8.27973e-09, No Iterations 1
DILUPBiCG:  Solving for T, Initial residual = 4.87506e-08, Final residual = 1.1584e-09, No Iterations 1
 T goes from min(T) [0 0 0 0 0 0 0] 7.70262e-21 to max(T) [0 0 0 0 0 0 0] 0.953084

ExecutionTime = 56.76 s  ClockTime = 953 s

Time = 0.475
Courant Number mean: 0.419171 max: 1.03443
DILUPBiCG:  Solving for T, Initial residual = 0.00729787, Final residual = 1.68694e-10, No Iterations 4
DILUPBiCG:  Solving for T, Initial residual = 4.91506e-05, Final residual = 5.22426e-09, No Iterations 2
DILUPBiCG:  Solving for T, Initial residual = 6.94156e-07, Final residual = 8.5097e-09, No Iterations 1
DILUPBiCG:  Solving for T, Initial residual = 4.82648e-08, Final residual = 1.1646e-09, No Iterations 1
 T goes from min(T) [0 0 0 0 0 0 0] 8.2121e-21 to max(T) [0 0 0 0 0 0 0] 0.953643

ExecutionTime = 57.27 s  ClockTime = 961 s

Time = 0.48
Courant Number mean: 0.418405 max: 1.03439
DILUPBiCG:  Solving for T, Initial residual = 0.00731258, Final residual = 1.97772e-10, No Iterations 4
DILUPBiCG:  Solving for T, Initial residual = 4.95333e-05, Final residual = 5.34108e-09, No Iterations 2
DILUPBiCG:  Solving for T, Initial residual = 6.99834e-07, Final residual = 8.73207e-09, No Iterations 1
DILUPBiCG:  Solving for T, Initial residual = 4.78175e-08, Final residual = 1.16905e-09, No Iterations 1
 T goes from min(T) [0 0 0 0 0 0 0] 7.88888e-21 to max(T) [0 0 0 0 0 0 0] 0.953784

ExecutionTime = 57.79 s  ClockTime = 968 s

Time = 0.485
Courant Number mean: 0.417638 max: 1.03448
DILUPBiCG:  Solving for T, Initial residual = 0.00732568, Final residual = 2.40358e-10, No Iterations 4
DILUPBiCG:  Solving for T, Initial residual = 4.99177e-05, Final residual = 5.46178e-09, No Iterations 2
DILUPBiCG:  Solving for T, Initial residual = 7.05385e-07, Final residual = 8.97758e-09, No Iterations 1
DILUPBiCG:  Solving for T, Initial residual = 4.73091e-08, Final residual = 1.17188e-09, No Iterations 1
 T goes from min(T) [0 0 0 0 0 0 0] 7.61978e-21 to max(T) [0 0 0 0 0 0 0] 0.953533

ExecutionTime = 58.31 s  ClockTime = 976 s

Time = 0.49
Courant Number mean: 0.416869 max: 1.03462
DILUPBiCG:  Solving for T, Initial residual = 0.00733886, Final residual = 3.06351e-10, No Iterations 4
DILUPBiCG:  Solving for T, Initial residual = 5.0318e-05, Final residual = 5.58074e-09, No Iterations 2
DILUPBiCG:  Solving for T, Initial residual = 7.12686e-07, Final residual = 9.22481e-09, No Iterations 1
DILUPBiCG:  Solving for T, Initial residual = 4.68257e-08, Final residual = 1.17524e-09, No Iterations 1
 T goes from min(T) [0 0 0 0 0 0 0] 7.71889e-21 to max(T) [0 0 0 0 0 0 0] 0.952915

ExecutionTime = 58.81 s  ClockTime = 984 s

Time = 0.495
Courant Number mean: 0.416096 max: 1.0347
DILUPBiCG:  Solving for T, Initial residual = 0.00735198, Final residual = 4.19339e-10, No Iterations 4
DILUPBiCG:  Solving for T, Initial residual = 5.07065e-05, Final residual = 5.70472e-09, No Iterations 2
DILUPBiCG:  Solving for T, Initial residual = 7.19596e-07, Final residual = 9.45473e-09, No Iterations 1
DILUPBiCG:  Solving for T, Initial residual = 4.64741e-08, Final residual = 1.1797e-09, No Iterations 1
 T goes from min(T) [0 0 0 0 0 0 0] 8.19295e-21 to max(T) [0 0 0 0 0 0 0] 0.953363

ExecutionTime = 59.34 s  ClockTime = 992 s

Time = 0.5
Courant Number mean: 0.415318 max: 1.0347
DILUPBiCG:  Solving for T, Initial residual = 0.00736741, Final residual = 6.52225e-10, No Iterations 4
DILUPBiCG:  Solving for T, Initial residual = 5.11268e-05, Final residual = 5.83181e-09, No Iterations 2
DILUPBiCG:  Solving for T, Initial residual = 7.25863e-07, Final residual = 9.70121e-09, No Iterations 1
DILUPBiCG:  Solving for T, Initial residual = 4.61237e-08, Final residual = 1.18314e-09, No Iterations 1
 T goes from min(T) [0 0 0 0 0 0 0] 7.99013e-21 to max(T) [0 0 0 0 0 0 0] 0.953575

ExecutionTime = 59.87 s  ClockTime = 1000 s

Time = 0.505
Courant Number mean: 0.41454 max: 1.03464
DILUPBiCG:  Solving for T, Initial residual = 0.00738188, Final residual = 1.40104e-09, No Iterations 4
DILUPBiCG:  Solving for T, Initial residual = 5.15269e-05, Final residual = 5.95756e-09, No Iterations 2
DILUPBiCG:  Solving for T, Initial residual = 7.32662e-07, Final residual = 9.94933e-09, No Iterations 1
DILUPBiCG:  Solving for T, Initial residual = 4.57822e-08, Final residual = 1.1851e-09, No Iterations 1
 T goes from min(T) [0 0 0 0 0 0 0] 7.68613e-21 to max(T) [0 0 0 0 0 0 0] 0.953413

ExecutionTime = 60.38 s  ClockTime = 1007 s

Time = 0.51
Courant Number mean: 0.41376 max: 1.0345
DILUPBiCG:  Solving for T, Initial residual = 0.00739769, Final residual = 3.56016e-12, No Iterations 5
DILUPBiCG:  Solving for T, Initial residual = 5.19256e-05, Final residual = 6.08795e-09, No Iterations 2
DILUPBiCG:  Solving for T, Initial residual = 7.39607e-07, Final residual = 1.17229e-10, No Iterations 2
DILUPBiCG:  Solving for T, Initial residual = 4.4371e-08, Final residual = 7.44651e-10, No Iterations 1
 T goes from min(T) [0 0 0 0 0 0 0] 7.75156e-21 to max(T) [0 0 0 0 0 0 0] 0.952899

ExecutionTime = 60.91 s  ClockTime = 1015 s

Time = 0.515
Courant Number mean: 0.412977 max: 1.03448
DILUPBiCG:  Solving for T, Initial residual = 0.00741246, Final residual = 1.19286e-09, No Iterations 4
DILUPBiCG:  Solving for T, Initial residual = 5.2353e-05, Final residual = 6.22064e-09, No Iterations 2
DILUPBiCG:  Solving for T, Initial residual = 7.46204e-07, Final residual = 1.20103e-10, No Iterations 2
DILUPBiCG:  Solving for T, Initial residual = 4.40057e-08, Final residual = 7.5038e-10, No Iterations 1
 T goes from min(T) [0 0 0 0 0 0 0] 8.19249e-21 to max(T) [0 0 0 0 0 0 0] 0.95276

ExecutionTime = 61.44 s  ClockTime = 1023 s

Time = 0.52
Courant Number mean: 0.412189 max: 1.03448
DILUPBiCG:  Solving for T, Initial residual = 0.0074251, Final residual = 6.37128e-10, No Iterations 4
DILUPBiCG:  Solving for T, Initial residual = 5.27718e-05, Final residual = 6.35355e-09, No Iterations 2
DILUPBiCG:  Solving for T, Initial residual = 7.53532e-07, Final residual = 1.2308e-10, No Iterations 2
DILUPBiCG:  Solving for T, Initial residual = 4.36658e-08, Final residual = 7.54782e-10, No Iterations 1
 T goes from min(T) [0 0 0 0 0 0 0] 8.10439e-21 to max(T) [0 0 0 0 0 0 0] 0.952558

ExecutionTime = 61.96 s  ClockTime = 1030 s

Time = 0.525
Courant Number mean: 0.4114 max: 1.03446
DILUPBiCG:  Solving for T, Initial residual = 0.00743961, Final residual = 4.54044e-10, No Iterations 4
DILUPBiCG:  Solving for T, Initial residual = 5.31782e-05, Final residual = 6.49088e-09, No Iterations 2
DILUPBiCG:  Solving for T, Initial residual = 7.61999e-07, Final residual = 1.26321e-10, No Iterations 2
DILUPBiCG:  Solving for T, Initial residual = 4.33801e-08, Final residual = 7.5947e-10, No Iterations 1
 T goes from min(T) [0 0 0 0 0 0 0] 7.76746e-21 to max(T) [0 0 0 0 0 0 0] 0.951756

ExecutionTime = 62.49 s  ClockTime = 1037 s

Time = 0.53
Courant Number mean: 0.41061 max: 1.03437
DILUPBiCG:  Solving for T, Initial residual = 0.00745611, Final residual = 3.703e-10, No Iterations 4
DILUPBiCG:  Solving for T, Initial residual = 5.36336e-05, Final residual = 6.63053e-09, No Iterations 2
DILUPBiCG:  Solving for T, Initial residual = 7.70303e-07, Final residual = 1.29554e-10, No Iterations 2
DILUPBiCG:  Solving for T, Initial residual = 4.3081e-08, Final residual = 7.63754e-10, No Iterations 1
 T goes from min(T) [0 0 0 0 0 0 0] 7.80109e-21 to max(T) [0 0 0 0 0 0 0] 0.95256

ExecutionTime = 63.02 s  ClockTime = 1045 s

Time = 0.535
Courant Number mean: 0.409817 max: 1.03424
DILUPBiCG:  Solving for T, Initial residual = 0.00747252, Final residual = 3.25827e-10, No Iterations 4
DILUPBiCG:  Solving for T, Initial residual = 5.4073e-05, Final residual = 6.76873e-09, No Iterations 2
DILUPBiCG:  Solving for T, Initial residual = 7.79174e-07, Final residual = 1.32814e-10, No Iterations 2
DILUPBiCG:  Solving for T, Initial residual = 4.27956e-08, Final residual = 7.67035e-10, No Iterations 1
 T goes from min(T) [0 0 0 0 0 0 0] 8.21025e-21 to max(T) [0 0 0 0 0 0 0] 0.952968

ExecutionTime = 63.53 s  ClockTime = 1052 s

Time = 0.54
Courant Number mean: 0.409021 max: 1.03423
DILUPBiCG:  Solving for T, Initial residual = 0.00748771, Final residual = 2.99424e-10, No Iterations 4
DILUPBiCG:  Solving for T, Initial residual = 5.44952e-05, Final residual = 6.911e-09, No Iterations 2
DILUPBiCG:  Solving for T, Initial residual = 7.88439e-07, Final residual = 1.36538e-10, No Iterations 2
DILUPBiCG:  Solving for T, Initial residual = 4.25177e-08, Final residual = 7.68931e-10, No Iterations 1
 T goes from min(T) [0 0 0 0 0 0 0] 8.23244e-21 to max(T) [0 0 0 0 0 0 0] 0.953002

ExecutionTime = 64.08 s  ClockTime = 1059 s

Time = 0.545
Courant Number mean: 0.40822 max: 1.03415
DILUPBiCG:  Solving for T, Initial residual = 0.00750378, Final residual = 2.82695e-10, No Iterations 4
DILUPBiCG:  Solving for T, Initial residual = 5.49485e-05, Final residual = 7.05623e-09, No Iterations 2
DILUPBiCG:  Solving for T, Initial residual = 7.97563e-07, Final residual = 1.40236e-10, No Iterations 2
DILUPBiCG:  Solving for T, Initial residual = 4.2262e-08, Final residual = 7.7051e-10, No Iterations 1
 T goes from min(T) [0 0 0 0 0 0 0] 7.86399e-21 to max(T) [0 0 0 0 0 0 0] 0.952685

ExecutionTime = 64.61 s  ClockTime = 1067 s

Time = 0.55
Courant Number mean: 0.40742 max: 1.034
DILUPBiCG:  Solving for T, Initial residual = 0.00751857, Final residual = 2.71738e-10, No Iterations 4
DILUPBiCG:  Solving for T, Initial residual = 5.54141e-05, Final residual = 7.19792e-09, No Iterations 2
DILUPBiCG:  Solving for T, Initial residual = 8.07779e-07, Final residual = 1.43942e-10, No Iterations 2
DILUPBiCG:  Solving for T, Initial residual = 4.20196e-08, Final residual = 7.72285e-10, No Iterations 1
 T goes from min(T) [0 0 0 0 0 0 0] 7.86653e-21 to max(T) [0 0 0 0 0 0 0] 0.95269

ExecutionTime = 65.19 s  ClockTime = 1075 s

Time = 0.555
Courant Number mean: 0.40662 max: 1.03378
DILUPBiCG:  Solving for T, Initial residual = 0.00753394, Final residual = 2.64441e-10, No Iterations 4
DILUPBiCG:  Solving for T, Initial residual = 5.58575e-05, Final residual = 7.34521e-09, No Iterations 2
DILUPBiCG:  Solving for T, Initial residual = 8.18003e-07, Final residual = 1.47861e-10, No Iterations 2
DILUPBiCG:  Solving for T, Initial residual = 4.18267e-08, Final residual = 7.73356e-10, No Iterations 1
 T goes from min(T) [0 0 0 0 0 0 0] 8.2435e-21 to max(T) [0 0 0 0 0 0 0] 0.952815

ExecutionTime = 65.72 s  ClockTime = 1082 s

Time = 0.56
Courant Number mean: 0.405816 max: 1.03351
DILUPBiCG:  Solving for T, Initial residual = 0.00754878, Final residual = 2.59593e-10, No Iterations 4
DILUPBiCG:  Solving for T, Initial residual = 5.6346e-05, Final residual = 7.4957e-09, No Iterations 2
DILUPBiCG:  Solving for T, Initial residual = 8.28789e-07, Final residual = 1.51969e-10, No Iterations 2
DILUPBiCG:  Solving for T, Initial residual = 4.17505e-08, Final residual = 7.75777e-10, No Iterations 1
 T goes from min(T) [0 0 0 0 0 0 0] 8.37423e-21 to max(T) [0 0 0 0 0 0 0] 0.952571

ExecutionTime = 66.25 s  ClockTime = 1090 s

Time = 0.565
Courant Number mean: 0.405006 max: 1.03346
DILUPBiCG:  Solving for T, Initial residual = 0.00756586, Final residual = 2.56482e-10, No Iterations 4
DILUPBiCG:  Solving for T, Initial residual = 5.68378e-05, Final residual = 7.64401e-09, No Iterations 2
DILUPBiCG:  Solving for T, Initial residual = 8.40383e-07, Final residual = 1.561e-10, No Iterations 2
DILUPBiCG:  Solving for T, Initial residual = 4.17027e-08, Final residual = 7.78555e-10, No Iterations 1
 T goes from min(T) [0 0 0 0 0 0 0] 7.97428e-21 to max(T) [0 0 0 0 0 0 0] 0.951982

ExecutionTime = 66.77 s  ClockTime = 1097 s

Time = 0.57
Courant Number mean: 0.404197 max: 1.03336
DILUPBiCG:  Solving for T, Initial residual = 0.00758348, Final residual = 2.54725e-10, No Iterations 4
DILUPBiCG:  Solving for T, Initial residual = 5.73114e-05, Final residual = 7.7958e-09, No Iterations 2
DILUPBiCG:  Solving for T, Initial residual = 8.52004e-07, Final residual = 1.60354e-10, No Iterations 2
DILUPBiCG:  Solving for T, Initial residual = 4.17055e-08, Final residual = 7.8071e-10, No Iterations 1
 T goes from min(T) [0 0 0 0 0 0 0] 7.94447e-21 to max(T) [0 0 0 0 0 0 0] 0.951821

ExecutionTime = 67.29 s  ClockTime = 1104 s

Time = 0.575
Courant Number mean: 0.403389 max: 1.03318
DILUPBiCG:  Solving for T, Initial residual = 0.00759987, Final residual = 2.54048e-10, No Iterations 4
DILUPBiCG:  Solving for T, Initial residual = 5.78143e-05, Final residual = 7.94808e-09, No Iterations 2
DILUPBiCG:  Solving for T, Initial residual = 8.63732e-07, Final residual = 1.64785e-10, No Iterations 2
DILUPBiCG:  Solving for T, Initial residual = 4.17662e-08, Final residual = 7.8313e-10, No Iterations 1
 T goes from min(T) [0 0 0 0 0 0 0] 8.28669e-21 to max(T) [0 0 0 0 0 0 0] 0.951854

ExecutionTime = 67.81 s  ClockTime = 1111 s

Time = 0.58
Courant Number mean: 0.402575 max: 1.03294
DILUPBiCG:  Solving for T, Initial residual = 0.00761408, Final residual = 2.54167e-10, No Iterations 4
DILUPBiCG:  Solving for T, Initial residual = 5.83366e-05, Final residual = 8.10361e-09, No Iterations 2
DILUPBiCG:  Solving for T, Initial residual = 8.76659e-07, Final residual = 1.69358e-10, No Iterations 2
DILUPBiCG:  Solving for T, Initial residual = 4.18286e-08, Final residual = 7.84923e-10, No Iterations 1
 T goes from min(T) [0 0 0 0 0 0 0] 8.52779e-21 to max(T) [0 0 0 0 0 0 0] 0.951512

ExecutionTime = 68.33 s  ClockTime = 1118 s

Time = 0.585
Courant Number mean: 0.401759 max: 1.03263
DILUPBiCG:  Solving for T, Initial residual = 0.00763218, Final residual = 2.54892e-10, No Iterations 4
DILUPBiCG:  Solving for T, Initial residual = 5.88388e-05, Final residual = 8.2554e-09, No Iterations 2
DILUPBiCG:  Solving for T, Initial residual = 8.90346e-07, Final residual = 1.74082e-10, No Iterations 2
DILUPBiCG:  Solving for T, Initial residual = 4.18502e-08, Final residual = 7.86755e-10, No Iterations 1
 T goes from min(T) [0 0 0 0 0 0 0] 8.09418e-21 to max(T) [0 0 0 0 0 0 0] 0.951514

ExecutionTime = 68.85 s  ClockTime = 1124 s

Time = 0.59
Courant Number mean: 0.400941 max: 1.03225
DILUPBiCG:  Solving for T, Initial residual = 0.00764755, Final residual = 2.56094e-10, No Iterations 4
DILUPBiCG:  Solving for T, Initial residual = 5.93519e-05, Final residual = 8.41239e-09, No Iterations 2
DILUPBiCG:  Solving for T, Initial residual = 9.03177e-07, Final residual = 1.78771e-10, No Iterations 2
DILUPBiCG:  Solving for T, Initial residual = 4.19731e-08, Final residual = 7.88632e-10, No Iterations 1
 T goes from min(T) [0 0 0 0 0 0 0] 8.02856e-21 to max(T) [0 0 0 0 0 0 0] 0.951258

ExecutionTime = 69.38 s  ClockTime = 1131 s

Time = 0.595
Courant Number mean: 0.400125 max: 1.03205
DILUPBiCG:  Solving for T, Initial residual = 0.00766414, Final residual = 2.57491e-10, No Iterations 4
DILUPBiCG:  Solving for T, Initial residual = 5.98947e-05, Final residual = 8.56988e-09, No Iterations 2
DILUPBiCG:  Solving for T, Initial residual = 9.16505e-07, Final residual = 1.84033e-10, No Iterations 2
DILUPBiCG:  Solving for T, Initial residual = 4.21775e-08, Final residual = 7.90283e-10, No Iterations 1
 T goes from min(T) [0 0 0 0 0 0 0] 8.3321e-21 to max(T) [0 0 0 0 0 0 0] 0.950635

ExecutionTime = 69.9 s  ClockTime = 1138 s

Time = 0.6
Courant Number mean: 0.399305 max: 1.03185
DILUPBiCG:  Solving for T, Initial residual = 0.00768115, Final residual = 2.59121e-10, No Iterations 4
DILUPBiCG:  Solving for T, Initial residual = 6.04345e-05, Final residual = 8.72481e-09, No Iterations 2
DILUPBiCG:  Solving for T, Initial residual = 9.31407e-07, Final residual = 1.89327e-10, No Iterations 2
DILUPBiCG:  Solving for T, Initial residual = 4.2327e-08, Final residual = 7.92262e-10, No Iterations 1
 T goes from min(T) [0 0 0 0 0 0 0] 8.68833e-21 to max(T) [0 0 0 0 0 0 0] 0.951189

ExecutionTime = 70.42 s  ClockTime = 1145 s

Time = 0.605
Courant Number mean: 0.398482 max: 1.03158
DILUPBiCG:  Solving for T, Initial residual = 0.00769907, Final residual = 2.60973e-10, No Iterations 4
DILUPBiCG:  Solving for T, Initial residual = 6.09678e-05, Final residual = 8.88789e-09, No Iterations 2
DILUPBiCG:  Solving for T, Initial residual = 9.46378e-07, Final residual = 1.94403e-10, No Iterations 2
DILUPBiCG:  Solving for T, Initial residual = 4.25699e-08, Final residual = 7.9394e-10, No Iterations 1
 T goes from min(T) [0 0 0 0 0 0 0] 8.21672e-21 to max(T) [0 0 0 0 0 0 0] 0.951571

ExecutionTime = 70.94 s  ClockTime = 1152 s

Time = 0.61
Courant Number mean: 0.397655 max: 1.03124
DILUPBiCG:  Solving for T, Initial residual = 0.00771738, Final residual = 2.63001e-10, No Iterations 4
DILUPBiCG:  Solving for T, Initial residual = 6.15389e-05, Final residual = 9.04766e-09, No Iterations 2
DILUPBiCG:  Solving for T, Initial residual = 9.61019e-07, Final residual = 2.00182e-10, No Iterations 2
DILUPBiCG:  Solving for T, Initial residual = 4.29014e-08, Final residual = 7.96954e-10, No Iterations 1
 T goes from min(T) [0 0 0 0 0 0 0] 8.11073e-21 to max(T) [0 0 0 0 0 0 0] 0.951585

ExecutionTime = 71.45 s  ClockTime = 1158 s

Time = 0.615
Courant Number mean: 0.396832 max: 1.03084
DILUPBiCG:  Solving for T, Initial residual = 0.00773404, Final residual = 2.6506e-10, No Iterations 4
DILUPBiCG:  Solving for T, Initial residual = 6.2117e-05, Final residual = 9.20887e-09, No Iterations 2
DILUPBiCG:  Solving for T, Initial residual = 9.7805e-07, Final residual = 2.06e-10, No Iterations 2
DILUPBiCG:  Solving for T, Initial residual = 4.32013e-08, Final residual = 7.99446e-10, No Iterations 1
 T goes from min(T) [0 0 0 0 0 0 0] 8.3728e-21 to max(T) [0 0 0 0 0 0 0] 0.951624

ExecutionTime = 71.97 s  ClockTime = 1165 s

Time = 0.62
Courant Number mean: 0.396008 max: 1.03052
DILUPBiCG:  Solving for T, Initial residual = 0.00774999, Final residual = 2.67023e-10, No Iterations 4
DILUPBiCG:  Solving for T, Initial residual = 6.26754e-05, Final residual = 9.37401e-09, No Iterations 2
DILUPBiCG:  Solving for T, Initial residual = 9.94801e-07, Final residual = 2.1197e-10, No Iterations 2
DILUPBiCG:  Solving for T, Initial residual = 4.34647e-08, Final residual = 8.0266e-10, No Iterations 1
 T goes from min(T) [0 0 0 0 0 0 0] 8.8482e-21 to max(T) [0 0 0 0 0 0 0] 0.951693

ExecutionTime = 72.49 s  ClockTime = 1172 s

Time = 0.625
Courant Number mean: 0.395179 max: 1.0302
DILUPBiCG:  Solving for T, Initial residual = 0.00776876, Final residual = 2.68938e-10, No Iterations 4
DILUPBiCG:  Solving for T, Initial residual = 6.32727e-05, Final residual = 9.53629e-09, No Iterations 2
DILUPBiCG:  Solving for T, Initial residual = 1.01168e-06, Final residual = 2.18176e-10, No Iterations 2
DILUPBiCG:  Solving for T, Initial residual = 4.3923e-08, Final residual = 8.07571e-10, No Iterations 1
 T goes from min(T) [0 0 0 0 0 0 0] 8.3335e-21 to max(T) [0 0 0 0 0 0 0] 0.951469

ExecutionTime = 73.02 s  ClockTime = 1179 s

Time = 0.63
Courant Number mean: 0.394346 max: 1.02981
DILUPBiCG:  Solving for T, Initial residual = 0.00778498, Final residual = 2.71039e-10, No Iterations 4
DILUPBiCG:  Solving for T, Initial residual = 6.38798e-05, Final residual = 9.70112e-09, No Iterations 2
DILUPBiCG:  Solving for T, Initial residual = 1.02925e-06, Final residual = 2.24426e-10, No Iterations 2
DILUPBiCG:  Solving for T, Initial residual = 4.44697e-08, Final residual = 8.13003e-10, No Iterations 1
 T goes from min(T) [0 0 0 0 0 0 0] 8.18439e-21 to max(T) [0 0 0 0 0 0 0] 0.951601

ExecutionTime = 73.54 s  ClockTime = 1185 s

Time = 0.635
Courant Number mean: 0.393515 max: 1.02935
DILUPBiCG:  Solving for T, Initial residual = 0.00780237, Final residual = 2.72978e-10, No Iterations 4
DILUPBiCG:  Solving for T, Initial residual = 6.44801e-05, Final residual = 9.86549e-09, No Iterations 2
DILUPBiCG:  Solving for T, Initial residual = 1.04827e-06, Final residual = 2.31336e-10, No Iterations 2
DILUPBiCG:  Solving for T, Initial residual = 4.49631e-08, Final residual = 8.19668e-10, No Iterations 1
 T goes from min(T) [0 0 0 0 0 0 0] 8.40768e-21 to max(T) [0 0 0 0 0 0 0] 0.951374

ExecutionTime = 74.05 s  ClockTime = 1192 s

Time = 0.64
Courant Number mean: 0.392685 max: 1.02892
DILUPBiCG:  Solving for T, Initial residual = 0.00782189, Final residual = 2.74751e-10, No Iterations 4
DILUPBiCG:  Solving for T, Initial residual = 6.50906e-05, Final residual = 4.89214e-10, No Iterations 3
DILUPBiCG:  Solving for T, Initial residual = 1.06733e-06, Final residual = 2.38442e-10, No Iterations 2
DILUPBiCG:  Solving for T, Initial residual = 4.55301e-08, Final residual = 8.26071e-10, No Iterations 1
 T goes from min(T) [0 0 0 0 0 0 0] 8.99889e-21 to max(T) [0 0 0 0 0 0 0] 0.951516

ExecutionTime = 74.57 s  ClockTime = 1199 s

Time = 0.645
Courant Number mean: 0.391852 max: 1.02864
DILUPBiCG:  Solving for T, Initial residual = 0.00784105, Final residual = 2.76465e-10, No Iterations 4
DILUPBiCG:  Solving for T, Initial residual = 6.57429e-05, Final residual = 6.06984e-10, No Iterations 3
DILUPBiCG:  Solving for T, Initial residual = 1.08596e-06, Final residual = 2.45625e-10, No Iterations 2
DILUPBiCG:  Solving for T, Initial residual = 4.62232e-08, Final residual = 8.33985e-10, No Iterations 1
 T goes from min(T) [0 0 0 0 0 0 0] 8.43853e-21 to max(T) [0 0 0 0 0 0 0] 0.951374

ExecutionTime = 75.09 s  ClockTime = 1206 s

Time = 0.65
Courant Number mean: 0.391015 max: 1.02828
DILUPBiCG:  Solving for T, Initial residual = 0.00785857, Final residual = 2.78213e-10, No Iterations 4
DILUPBiCG:  Solving for T, Initial residual = 6.63684e-05, Final residual = 7.81856e-10, No Iterations 3
DILUPBiCG:  Solving for T, Initial residual = 1.10691e-06, Final residual = 2.53315e-10, No Iterations 2
DILUPBiCG:  Solving for T, Initial residual = 4.69147e-08, Final residual = 8.42652e-10, No Iterations 1
 T goes from min(T) [0 0 0 0 0 0 0] 8.25003e-21 to max(T) [0 0 0 0 0 0 0] 0.951401

ExecutionTime = 75.62 s  ClockTime = 1213 s

Time = 0.655
Courant Number mean: 0.390175 max: 1.02787
DILUPBiCG:  Solving for T, Initial residual = 0.00787708, Final residual = 2.79886e-10, No Iterations 4
DILUPBiCG:  Solving for T, Initial residual = 6.70057e-05, Final residual = 1.06883e-09, No Iterations 3
DILUPBiCG:  Solving for T, Initial residual = 1.12808e-06, Final residual = 2.61308e-10, No Iterations 2
[...]

ExecutionTime = 617.84 s  ClockTime = 4152 s

Time = 5.84
Courant Number mean: 0.411683 max: 0.962645
DILUPBiCG:  Solving for T, Initial residual = 0.00863092, Final residual = 4.86597e-09, No Iterations 3
DILUPBiCG:  Solving for T, Initial residual = 0.000106443, Final residual = 3.95065e-10, No Iterations 3
DILUPBiCG:  Solving for T, Initial residual = 3.94883e-06, Final residual = 3.48163e-10, No Iterations 2
DILUPBiCG:  Solving for T, Initial residual = 3.11851e-07, Final residual = 4.62132e-09, No Iterations 1
 T goes from min(T) [0 0 0 0 0 0 0] -0.111983 to max(T) [0 0 0 0 0 0 0] 0.831435

ExecutionTime = 618.33 s  ClockTime = 4154 s

Time = 5.845
Courant Number mean: 0.412011 max: 0.960788
DILUPBiCG:  Solving for T, Initial residual = 0.00866542, Final residual = 4.80918e-09, No Iterations 3
DILUPBiCG:  Solving for T, Initial residual = 0.00010757, Final residual = 1.25264e-09, No Iterations 3
DILUPBiCG:  Solving for T, Initial residual = 4.01449e-06, Final residual = 3.47039e-10, No Iterations 2
DILUPBiCG:  Solving for T, Initial residual = 3.16455e-07, Final residual = 4.83352e-09, No Iterations 1
 T goes from min(T) [0 0 0 0 0 0 0] -0.111501 to max(T) [0 0 0 0 0 0 0] 0.831484

ExecutionTime = 618.92 s  ClockTime = 4155 s

Time = 5.85
Courant Number mean: 0.412332 max: 0.95898
DILUPBiCG:  Solving for T, Initial residual = 0.00869816, Final residual = 4.75314e-09, No Iterations 3
DILUPBiCG:  Solving for T, Initial residual = 0.000108525, Final residual = 1.81255e-09, No Iterations 3
DILUPBiCG:  Solving for T, Initial residual = 4.07537e-06, Final residual = 3.46372e-10, No Iterations 2
DILUPBiCG:  Solving for T, Initial residual = 3.20954e-07, Final residual = 5.0049e-09, No Iterations 1
 T goes from min(T) [0 0 0 0 0 0 0] -0.112689 to max(T) [0 0 0 0 0 0 0] 0.831297

ExecutionTime = 619.45 s  ClockTime = 4157 s

Time = 5.855
Courant Number mean: 0.412649 max: 0.957251
DILUPBiCG:  Solving for T, Initial residual = 0.0087309, Final residual = 4.69461e-09, No Iterations 3
DILUPBiCG:  Solving for T, Initial residual = 0.00010955, Final residual = 6.84001e-10, No Iterations 3
DILUPBiCG:  Solving for T, Initial residual = 4.12045e-06, Final residual = 3.48165e-10, No Iterations 2
DILUPBiCG:  Solving for T, Initial residual = 3.2512e-07, Final residual = 5.14588e-09, No Iterations 1
 T goes from min(T) [0 0 0 0 0 0 0] -0.112689 to max(T) [0 0 0 0 0 0 0] 0.830881

ExecutionTime = 620.11 s  ClockTime = 4159 s

Time = 5.86
Courant Number mean: 0.412965 max: 0.955464
DILUPBiCG:  Solving for T, Initial residual = 0.0087627, Final residual = 4.6371e-09, No Iterations 3
DILUPBiCG:  Solving for T, Initial residual = 0.000110641, Final residual = 4.86814e-10, No Iterations 3
DILUPBiCG:  Solving for T, Initial residual = 4.18301e-06, Final residual = 3.50303e-10, No Iterations 2
DILUPBiCG:  Solving for T, Initial residual = 3.29304e-07, Final residual = 5.41759e-09, No Iterations 1
 T goes from min(T) [0 0 0 0 0 0 0] -0.111516 to max(T) [0 0 0 0 0 0 0] 0.830749

ExecutionTime = 620.62 s  ClockTime = 4160 s

Time = 5.865
Courant Number mean: 0.413279 max: 0.953622
DILUPBiCG:  Solving for T, Initial residual = 0.00879387, Final residual = 4.57907e-09, No Iterations 3
DILUPBiCG:  Solving for T, Initial residual = 0.000111666, Final residual = 4.10353e-10, No Iterations 3
DILUPBiCG:  Solving for T, Initial residual = 4.25731e-06, Final residual = 3.5238e-10, No Iterations 2
DILUPBiCG:  Solving for T, Initial residual = 3.31372e-07, Final residual = 5.66926e-09, No Iterations 1
 T goes from min(T) [0 0 0 0 0 0 0] -0.111434 to max(T) [0 0 0 0 0 0 0] 0.830843

ExecutionTime = 621.11 s  ClockTime = 4162 s

Time = 5.87
Courant Number mean: 0.413589 max: 0.951723
DILUPBiCG:  Solving for T, Initial residual = 0.00882893, Final residual = 4.51813e-09, No Iterations 3
DILUPBiCG:  Solving for T, Initial residual = 0.000112719, Final residual = 3.72512e-10, No Iterations 3
DILUPBiCG:  Solving for T, Initial residual = 4.31059e-06, Final residual = 3.54531e-10, No Iterations 2
DILUPBiCG:  Solving for T, Initial residual = 3.34476e-07, Final residual = 5.88999e-09, No Iterations 1
 T goes from min(T) [0 0 0 0 0 0 0] -0.112476 to max(T) [0 0 0 0 0 0 0] 0.831218

ExecutionTime = 621.64 s  ClockTime = 4164 s

Time = 5.875
Courant Number mean: 0.413892 max: 0.949769
DILUPBiCG:  Solving for T, Initial residual = 0.00886266, Final residual = 4.47529e-09, No Iterations 3
DILUPBiCG:  Solving for T, Initial residual = 0.000113805, Final residual = 3.52101e-10, No Iterations 3
DILUPBiCG:  Solving for T, Initial residual = 4.36077e-06, Final residual = 3.56544e-10, No Iterations 2
DILUPBiCG:  Solving for T, Initial residual = 3.37552e-07, Final residual = 6.05443e-09, No Iterations 1
 T goes from min(T) [0 0 0 0 0 0 0] -0.112367 to max(T) [0 0 0 0 0 0 0] 0.831366

ExecutionTime = 622.18 s  ClockTime = 4165 s

Time = 5.88
Courant Number mean: 0.414193 max: 0.947878
DILUPBiCG:  Solving for T, Initial residual = 0.00889687, Final residual = 4.4475e-09, No Iterations 3
DILUPBiCG:  Solving for T, Initial residual = 0.000114802, Final residual = 3.44575e-10, No Iterations 3
DILUPBiCG:  Solving for T, Initial residual = 4.42717e-06, Final residual = 3.58004e-10, No Iterations 2
DILUPBiCG:  Solving for T, Initial residual = 3.39705e-07, Final residual = 6.2449e-09, No Iterations 1
 T goes from min(T) [0 0 0 0 0 0 0] -0.111212 to max(T) [0 0 0 0 0 0 0] 0.831292

ExecutionTime = 622.7 s  ClockTime = 4167 s

Time = 5.885
Courant Number mean: 0.414493 max: 0.94609
DILUPBiCG:  Solving for T, Initial residual = 0.00893342, Final residual = 4.42095e-09, No Iterations 3
DILUPBiCG:  Solving for T, Initial residual = 0.000115867, Final residual = 3.53356e-10, No Iterations 3
DILUPBiCG:  Solving for T, Initial residual = 4.48729e-06, Final residual = 3.59332e-10, No Iterations 2
DILUPBiCG:  Solving for T, Initial residual = 3.41762e-07, Final residual = 6.33088e-09, No Iterations 1
 T goes from min(T) [0 0 0 0 0 0 0] -0.111324 to max(T) [0 0 0 0 0 0 0] 0.831141

ExecutionTime = 623.22 s  ClockTime = 4168 s

Time = 5.89
Courant Number mean: 0.414787 max: 0.944245
DILUPBiCG:  Solving for T, Initial residual = 0.00896335, Final residual = 4.39602e-09, No Iterations 3
DILUPBiCG:  Solving for T, Initial residual = 0.000116907, Final residual = 3.8671e-10, No Iterations 3
DILUPBiCG:  Solving for T, Initial residual = 4.53614e-06, Final residual = 3.60029e-10, No Iterations 2
DILUPBiCG:  Solving for T, Initial residual = 3.45064e-07, Final residual = 6.34329e-09, No Iterations 1
 T goes from min(T) [0 0 0 0 0 0 0] -0.112236 to max(T) [0 0 0 0 0 0 0] 0.831309

ExecutionTime = 623.73 s  ClockTime = 4170 s

Time = 5.895
Courant Number mean: 0.415077 max: 0.942345
DILUPBiCG:  Solving for T, Initial residual = 0.00899557, Final residual = 4.39454e-09, No Iterations 3
DILUPBiCG:  Solving for T, Initial residual = 0.000117957, Final residual = 4.85939e-10, No Iterations 3
DILUPBiCG:  Solving for T, Initial residual = 4.58487e-06, Final residual = 3.63064e-10, No Iterations 2
DILUPBiCG:  Solving for T, Initial residual = 3.4685e-07, Final residual = 6.27284e-09, No Iterations 1
 T goes from min(T) [0 0 0 0 0 0 0] -0.112093 to max(T) [0 0 0 0 0 0 0] 0.831287

ExecutionTime = 624.25 s  ClockTime = 4171 s

Time = 5.9
Courant Number mean: 0.415364 max: 0.94039
DILUPBiCG:  Solving for T, Initial residual = 0.00903009, Final residual = 4.40919e-09, No Iterations 3
DILUPBiCG:  Solving for T, Initial residual = 0.00011898, Final residual = 9.38408e-10, No Iterations 3
DILUPBiCG:  Solving for T, Initial residual = 4.6446e-06, Final residual = 3.70519e-10, No Iterations 2
DILUPBiCG:  Solving for T, Initial residual = 3.48384e-07, Final residual = 6.22907e-09, No Iterations 1
 T goes from min(T) [0 0 0 0 0 0 0] -0.111055 to max(T) [0 0 0 0 0 0 0] 0.831084

ExecutionTime = 624.76 s  ClockTime = 4173 s

Time = 5.905
Courant Number mean: 0.41565 max: 0.938381
DILUPBiCG:  Solving for T, Initial residual = 0.00906, Final residual = 4.45839e-09, No Iterations 3
DILUPBiCG:  Solving for T, Initial residual = 0.00011991, Final residual = 1.5693e-09, No Iterations 3
DILUPBiCG:  Solving for T, Initial residual = 4.70436e-06, Final residual = 3.7796e-10, No Iterations 2
DILUPBiCG:  Solving for T, Initial residual = 3.52648e-07, Final residual = 6.14945e-09, No Iterations 1
 T goes from min(T) [0 0 0 0 0 0 0] -0.111108 to max(T) [0 0 0 0 0 0 0] 0.830706

ExecutionTime = 625.27 s  ClockTime = 4174 s

Time = 5.91
Courant Number mean: 0.41593 max: 0.936376
DILUPBiCG:  Solving for T, Initial residual = 0.00909502, Final residual = 4.54898e-09, No Iterations 3
DILUPBiCG:  Solving for T, Initial residual = 0.000120979, Final residual = 3.09745e-10, No Iterations 3
DILUPBiCG:  Solving for T, Initial residual = 4.75085e-06, Final residual = 3.85302e-10, No Iterations 2
DILUPBiCG:  Solving for T, Initial residual = 3.55482e-07, Final residual = 6.10658e-09, No Iterations 1
 T goes from min(T) [0 0 0 0 0 0 0] -0.111932 to max(T) [0 0 0 0 0 0 0] 0.830656

ExecutionTime = 625.86 s  ClockTime = 4176 s

Time = 5.915
Courant Number mean: 0.416202 max: 0.934532
DILUPBiCG:  Solving for T, Initial residual = 0.00913106, Final residual = 4.65241e-09, No Iterations 3
DILUPBiCG:  Solving for T, Initial residual = 0.000122018, Final residual = 1.69931e-10, No Iterations 3
DILUPBiCG:  Solving for T, Initial residual = 4.79781e-06, Final residual = 3.95039e-10, No Iterations 2
DILUPBiCG:  Solving for T, Initial residual = 3.56438e-07, Final residual = 6.0141e-09, No Iterations 1
 T goes from min(T) [0 0 0 0 0 0 0] -0.111842 to max(T) [0 0 0 0 0 0 0] 0.830676

ExecutionTime = 626.39 s  ClockTime = 4178 s

Time = 5.92
Courant Number mean: 0.416474 max: 0.932633
DILUPBiCG:  Solving for T, Initial residual = 0.00916416, Final residual = 4.78541e-09, No Iterations 3
DILUPBiCG:  Solving for T, Initial residual = 0.000122874, Final residual = 1.2405e-10, No Iterations 3
DILUPBiCG:  Solving for T, Initial residual = 4.86167e-06, Final residual = 4.04801e-10, No Iterations 2
DILUPBiCG:  Solving for T, Initial residual = 3.59011e-07, Final residual = 5.92595e-09, No Iterations 1
 T goes from min(T) [0 0 0 0 0 0 0] -0.110983 to max(T) [0 0 0 0 0 0 0] 0.830995

ExecutionTime = 626.96 s  ClockTime = 4179 s

Time = 5.925
Courant Number mean: 0.416743 max: 0.93068
DILUPBiCG:  Solving for T, Initial residual = 0.00919996, Final residual = 4.92447e-09, No Iterations 3
DILUPBiCG:  Solving for T, Initial residual = 0.000123803, Final residual = 9.3798e-09, No Iterations 2
DILUPBiCG:  Solving for T, Initial residual = 4.919e-06, Final residual = 4.13439e-10, No Iterations 2
DILUPBiCG:  Solving for T, Initial residual = 3.62094e-07, Final residual = 6.02177e-09, No Iterations 1
 T goes from min(T) [0 0 0 0 0 0 0] -0.110768 to max(T) [0 0 0 0 0 0 0] 0.831158

ExecutionTime = 627.45 s  ClockTime = 4181 s

Time = 5.93
Courant Number mean: 0.417006 max: 0.928673
DILUPBiCG:  Solving for T, Initial residual = 0.00923163, Final residual = 5.06253e-09, No Iterations 3
DILUPBiCG:  Solving for T, Initial residual = 0.000124944, Final residual = 8.70399e-09, No Iterations 2
DILUPBiCG:  Solving for T, Initial residual = 4.96684e-06, Final residual = 4.29136e-10, No Iterations 2
DILUPBiCG:  Solving for T, Initial residual = 3.65299e-07, Final residual = 6.02285e-09, No Iterations 1
 T goes from min(T) [0 0 0 0 0 0 0] -0.11161 to max(T) [0 0 0 0 0 0 0] 0.83115

ExecutionTime = 627.95 s  ClockTime = 4182 s

Time = 5.935
Courant Number mean: 0.417264 max: 0.926677
DILUPBiCG:  Solving for T, Initial residual = 0.00926296, Final residual = 5.18918e-09, No Iterations 3
DILUPBiCG:  Solving for T, Initial residual = 0.000125979, Final residual = 8.16294e-09, No Iterations 2
DILUPBiCG:  Solving for T, Initial residual = 5.01706e-06, Final residual = 4.50415e-10, No Iterations 2
DILUPBiCG:  Solving for T, Initial residual = 3.67115e-07, Final residual = 6.01308e-09, No Iterations 1
 T goes from min(T) [0 0 0 0 0 0 0] -0.111567 to max(T) [0 0 0 0 0 0 0] 0.830978

ExecutionTime = 628.47 s  ClockTime = 4183 s

Time = 5.94
Courant Number mean: 0.417519 max: 0.924733
DILUPBiCG:  Solving for T, Initial residual = 0.00929815, Final residual = 5.30228e-09, No Iterations 3
DILUPBiCG:  Solving for T, Initial residual = 0.000127029, Final residual = 7.71482e-09, No Iterations 2
DILUPBiCG:  Solving for T, Initial residual = 5.07655e-06, Final residual = 4.82046e-10, No Iterations 2
DILUPBiCG:  Solving for T, Initial residual = 3.70234e-07, Final residual = 6.02052e-09, No Iterations 1
 T goes from min(T) [0 0 0 0 0 0 0] -0.110894 to max(T) [0 0 0 0 0 0 0] 0.830798

ExecutionTime = 628.99 s  ClockTime = 4184 s

Time = 5.945
Courant Number mean: 0.417772 max: 0.922735
DILUPBiCG:  Solving for T, Initial residual = 0.00932686, Final residual = 5.42992e-09, No Iterations 3
DILUPBiCG:  Solving for T, Initial residual = 0.000127883, Final residual = 7.34104e-09, No Iterations 2
DILUPBiCG:  Solving for T, Initial residual = 5.12836e-06, Final residual = 5.42737e-10, No Iterations 2
DILUPBiCG:  Solving for T, Initial residual = 3.72448e-07, Final residual = 5.99791e-09, No Iterations 1
 T goes from min(T) [0 0 0 0 0 0 0] -0.110465 to max(T) [0 0 0 0 0 0 0] 0.831017

ExecutionTime = 629.52 s  ClockTime = 4186 s

Time = 5.95
Courant Number mean: 0.418017 max: 0.920685
DILUPBiCG:  Solving for T, Initial residual = 0.009361, Final residual = 5.55845e-09, No Iterations 3
DILUPBiCG:  Solving for T, Initial residual = 0.000128756, Final residual = 7.03986e-09, No Iterations 2
DILUPBiCG:  Solving for T, Initial residual = 5.17832e-06, Final residual = 7.02895e-10, No Iterations 2
DILUPBiCG:  Solving for T, Initial residual = 3.73704e-07, Final residual = 5.96928e-09, No Iterations 1
 T goes from min(T) [0 0 0 0 0 0 0] -0.111334 to max(T) [0 0 0 0 0 0 0] 0.831098

ExecutionTime = 630.02 s  ClockTime = 4187 s

Time = 5.955
Courant Number mean: 0.418257 max: 0.918651
DILUPBiCG:  Solving for T, Initial residual = 0.00939775, Final residual = 5.67607e-09, No Iterations 3
DILUPBiCG:  Solving for T, Initial residual = 0.000129923, Final residual = 6.80692e-09, No Iterations 2
DILUPBiCG:  Solving for T, Initial residual = 5.22736e-06, Final residual = 1.42173e-09, No Iterations 2
DILUPBiCG:  Solving for T, Initial residual = 3.7483e-07, Final residual = 6.00876e-09, No Iterations 1
 T goes from min(T) [0 0 0 0 0 0 0] -0.111438 to max(T) [0 0 0 0 0 0 0] 0.831049

ExecutionTime = 630.54 s  ClockTime = 4188 s

Time = 5.96
Courant Number mean: 0.418495 max: 0.916691
DILUPBiCG:  Solving for T, Initial residual = 0.00943082, Final residual = 5.78582e-09, No Iterations 3
DILUPBiCG:  Solving for T, Initial residual = 0.000130782, Final residual = 6.60854e-09, No Iterations 2
DILUPBiCG:  Solving for T, Initial residual = 5.28238e-06, Final residual = 3.12269e-11, No Iterations 3
DILUPBiCG:  Solving for T, Initial residual = 3.7897e-07, Final residual = 6.0341e-09, No Iterations 1
 T goes from min(T) [0 0 0 0 0 0 0] -0.110908 to max(T) [0 0 0 0 0 0 0] 0.830876

ExecutionTime = 631.16 s  ClockTime = 4190 s

Time = 5.965
Courant Number mean: 0.418729 max: 0.914749
DILUPBiCG:  Solving for T, Initial residual = 0.00946249, Final residual = 5.88558e-09, No Iterations 3
DILUPBiCG:  Solving for T, Initial residual = 0.000131568, Final residual = 6.45433e-09, No Iterations 2
DILUPBiCG:  Solving for T, Initial residual = 5.33324e-06, Final residual = 2.63291e-09, No Iterations 2
DILUPBiCG:  Solving for T, Initial residual = 3.83266e-07, Final residual = 6.03312e-09, No Iterations 1
 T goes from min(T) [0 0 0 0 0 0 0] -0.10997 to max(T) [0 0 0 0 0 0 0] 0.830585

ExecutionTime = 631.93 s  ClockTime = 4192 s

Time = 5.97
Courant Number mean: 0.418957 max: 0.912754
DILUPBiCG:  Solving for T, Initial residual = 0.00949745, Final residual = 5.98749e-09, No Iterations 3
DILUPBiCG:  Solving for T, Initial residual = 0.000132609, Final residual = 6.34364e-09, No Iterations 2
DILUPBiCG:  Solving for T, Initial residual = 5.37427e-06, Final residual = 1.54924e-09, No Iterations 2
DILUPBiCG:  Solving for T, Initial residual = 3.84195e-07, Final residual = 6.01036e-09, No Iterations 1
 T goes from min(T) [0 0 0 0 0 0 0] -0.110902 to max(T) [0 0 0 0 0 0 0] 0.830264

ExecutionTime = 632.45 s  ClockTime = 4193 s

Time = 5.975
Courant Number mean: 0.419178 max: 0.910708
DILUPBiCG:  Solving for T, Initial residual = 0.00953127, Final residual = 6.11073e-09, No Iterations 3
DILUPBiCG:  Solving for T, Initial residual = 0.000133613, Final residual = 6.25893e-09, No Iterations 2
DILUPBiCG:  Solving for T, Initial residual = 5.41786e-06, Final residual = 1.22104e-09, No Iterations 2
DILUPBiCG:  Solving for T, Initial residual = 3.85551e-07, Final residual = 5.97786e-09, No Iterations 1
 T goes from min(T) [0 0 0 0 0 0 0] -0.111146 to max(T) [0 0 0 0 0 0 0] 0.830462

ExecutionTime = 633.03 s  ClockTime = 4194 s

Time = 5.98
Courant Number mean: 0.419396 max: 0.908609
DILUPBiCG:  Solving for T, Initial residual = 0.00956105, Final residual = 6.22367e-09, No Iterations 3
DILUPBiCG:  Solving for T, Initial residual = 0.000134418, Final residual = 6.1868e-09, No Iterations 2
DILUPBiCG:  Solving for T, Initial residual = 5.46643e-06, Final residual = 1.0672e-09, No Iterations 2
DILUPBiCG:  Solving for T, Initial residual = 3.87577e-07, Final residual = 5.92501e-09, No Iterations 1
 T goes from min(T) [0 0 0 0 0 0 0] -0.110844 to max(T) [0 0 0 0 0 0 0] 0.830602

ExecutionTime = 633.59 s  ClockTime = 4196 s

Time = 5.985
Courant Number mean: 0.419611 max: 0.90646
DILUPBiCG:  Solving for T, Initial residual = 0.00959236, Final residual = 6.33022e-09, No Iterations 3
DILUPBiCG:  Solving for T, Initial residual = 0.000135346, Final residual = 6.12232e-09, No Iterations 2
DILUPBiCG:  Solving for T, Initial residual = 5.51775e-06, Final residual = 9.83638e-10, No Iterations 2
DILUPBiCG:  Solving for T, Initial residual = 3.89415e-07, Final residual = 5.91461e-09, No Iterations 1
 T goes from min(T) [0 0 0 0 0 0 0] -0.110099 to max(T) [0 0 0 0 0 0 0] 0.830799

ExecutionTime = 634.13 s  ClockTime = 4197 s

Time = 5.99
Courant Number mean: 0.419818 max: 0.904468
DILUPBiCG:  Solving for T, Initial residual = 0.00962383, Final residual = 6.42928e-09, No Iterations 3
DILUPBiCG:  Solving for T, Initial residual = 0.000136379, Final residual = 6.06172e-09, No Iterations 2
DILUPBiCG:  Solving for T, Initial residual = 5.56874e-06, Final residual = 9.32908e-10, No Iterations 2
DILUPBiCG:  Solving for T, Initial residual = 3.91044e-07, Final residual = 5.88564e-09, No Iterations 1
 T goes from min(T) [0 0 0 0 0 0 0] -0.11059 to max(T) [0 0 0 0 0 0 0] 0.830879

ExecutionTime = 634.67 s  ClockTime = 4198 s

Time = 5.995
Courant Number mean: 0.420019 max: 0.902478
DILUPBiCG:  Solving for T, Initial residual = 0.00965946, Final residual = 6.51658e-09, No Iterations 3
DILUPBiCG:  Solving for T, Initial residual = 0.000137325, Final residual = 6.01496e-09, No Iterations 2
DILUPBiCG:  Solving for T, Initial residual = 5.60319e-06, Final residual = 8.99213e-10, No Iterations 2
DILUPBiCG:  Solving for T, Initial residual = 3.93329e-07, Final residual = 5.88183e-09, No Iterations 1
 T goes from min(T) [0 0 0 0 0 0 0] -0.110977 to max(T) [0 0 0 0 0 0 0] 0.830846

ExecutionTime = 635.19 s  ClockTime = 4200 s

Time = 6
Courant Number mean: 0.420218 max: 0.900438
DILUPBiCG:  Solving for T, Initial residual = 0.00969034, Final residual = 6.59925e-09, No Iterations 3
DILUPBiCG:  Solving for T, Initial residual = 0.000138121, Final residual = 5.96597e-09, No Iterations 2
DILUPBiCG:  Solving for T, Initial residual = 5.64462e-06, Final residual = 8.78785e-10, No Iterations 2
DILUPBiCG:  Solving for T, Initial residual = 3.94942e-07, Final residual = 5.85366e-09, No Iterations 1
 T goes from min(T) [0 0 0 0 0 0 0] -0.110836 to max(T) [0 0 0 0 0 0 0] 0.830707

ExecutionTime = 635.69 s  ClockTime = 4201 s

End

