/*---------------------------------------------------------------------------*\
| =========                 |                                                 |
| \\      /  F ield         | OpenFOAM: The Open Source CFD Toolbox           |
|  \\    /   O peration     | Version:  dev                                   |
|   \\  /    A nd           | Web:      www.OpenFOAM.org                      |
|    \\/     M anipulation  |                                                 |
\*---------------------------------------------------------------------------*/
Build  : dev-90f39e0d894d
Exec   : scalarDeformationWithGhosts explicit -case orthogonal/120x60/c1_explicit
Date   : May 23 2017
Time   : 20:31:18
Host   : "sws02hw.private.rdg.ac.uk"
PID    : 22914
Case   : orthogonal/120x60/c1_explicit
nProcs : 1
sigFpe : Enabling floating point exception trapping (FOAM_SIGFPE).
fileModificationChecking : Monitoring run-time modified files using timeStampMaster (fileModificationSkew 10)
allowSystemOperations : Allowing user-supplied system call operations

// * * * * * * * * * * * * * * * * * * * * * * * * * * * * * * * * * * * * * //
Create time

Create mesh for time = 0

Reading field T

Reading fields phi (compulsory), U and Uf (optional)

Calculating owner stencils
Calculating neighbour stencils

Calculating scalar transport

Courant Number mean: 0.374505 max: 0.73529
Time = 0.01
Courant Number mean: 0.374466 max: 0.735395
diagonal:  Solving for T, Initial residual = 0, Final residual = 0, No Iterations 0
diagonal:  Solving for T, Initial residual = 0, Final residual = 0, No Iterations 0
diagonal:  Solving for T, Initial residual = 0, Final residual = 0, No Iterations 0
diagonal:  Solving for T, Initial residual = 0, Final residual = 0, No Iterations 0
 T goes from min(T) [0 0 0 0 0 0 0] 1.33146e-20 to max(T) [0 0 0 0 0 0 0] 0.953204

ExecutionTime = 2.19 s  ClockTime = 33 s

Time = 0.02
Courant Number mean: 0.374335 max: 0.735274
diagonal:  Solving for T, Initial residual = 0, Final residual = 0, No Iterations 0
diagonal:  Solving for T, Initial residual = 0, Final residual = 0, No Iterations 0
diagonal:  Solving for T, Initial residual = 0, Final residual = 0, No Iterations 0
diagonal:  Solving for T, Initial residual = 0, Final residual = 0, No Iterations 0
 T goes from min(T) [0 0 0 0 0 0 0] 1.3686e-20 to max(T) [0 0 0 0 0 0 0] 0.953629

ExecutionTime = 2.32 s  ClockTime = 36 s

Time = 0.03
Courant Number mean: 0.374423 max: 0.735315
diagonal:  Solving for T, Initial residual = 0, Final residual = 0, No Iterations 0
diagonal:  Solving for T, Initial residual = 0, Final residual = 0, No Iterations 0
diagonal:  Solving for T, Initial residual = 0, Final residual = 0, No Iterations 0
diagonal:  Solving for T, Initial residual = 0, Final residual = 0, No Iterations 0
 T goes from min(T) [0 0 0 0 0 0 0] 1.76781e-20 to max(T) [0 0 0 0 0 0 0] 0.950988

ExecutionTime = 2.45 s  ClockTime = 39 s

Time = 0.04
Courant Number mean: 0.374448 max: 0.735167
diagonal:  Solving for T, Initial residual = 0, Final residual = 0, No Iterations 0
diagonal:  Solving for T, Initial residual = 0, Final residual = 0, No Iterations 0
diagonal:  Solving for T, Initial residual = 0, Final residual = 0, No Iterations 0
diagonal:  Solving for T, Initial residual = 0, Final residual = 0, No Iterations 0
 T goes from min(T) [0 0 0 0 0 0 0] 1.85027e-20 to max(T) [0 0 0 0 0 0 0] 0.951497

ExecutionTime = 2.6 s  ClockTime = 42 s

Time = 0.05
Courant Number mean: 0.374393 max: 0.735155
diagonal:  Solving for T, Initial residual = 0, Final residual = 0, No Iterations 0
diagonal:  Solving for T, Initial residual = 0, Final residual = 0, No Iterations 0
diagonal:  Solving for T, Initial residual = 0, Final residual = 0, No Iterations 0
diagonal:  Solving for T, Initial residual = 0, Final residual = 0, No Iterations 0
 T goes from min(T) [0 0 0 0 0 0 0] 1.81488e-20 to max(T) [0 0 0 0 0 0 0] 0.952919

ExecutionTime = 2.73 s  ClockTime = 45 s

Time = 0.06
Courant Number mean: 0.374247 max: 0.734991
diagonal:  Solving for T, Initial residual = 0, Final residual = 0, No Iterations 0
diagonal:  Solving for T, Initial residual = 0, Final residual = 0, No Iterations 0
diagonal:  Solving for T, Initial residual = 0, Final residual = 0, No Iterations 0
diagonal:  Solving for T, Initial residual = 0, Final residual = 0, No Iterations 0
 T goes from min(T) [0 0 0 0 0 0 0] 2.17741e-20 to max(T) [0 0 0 0 0 0 0] 0.951085

ExecutionTime = 2.87 s  ClockTime = 48 s

Time = 0.07
Courant Number mean: 0.374264 max: 0.734918
diagonal:  Solving for T, Initial residual = 0, Final residual = 0, No Iterations 0
diagonal:  Solving for T, Initial residual = 0, Final residual = 0, No Iterations 0
diagonal:  Solving for T, Initial residual = 0, Final residual = 0, No Iterations 0
diagonal:  Solving for T, Initial residual = 0, Final residual = 0, No Iterations 0
 T goes from min(T) [0 0 0 0 0 0 0] 2.49115e-20 to max(T) [0 0 0 0 0 0 0] 0.953069

ExecutionTime = 2.99 s  ClockTime = 50 s

Time = 0.08
Courant Number mean: 0.374275 max: 0.734725
diagonal:  Solving for T, Initial residual = 0, Final residual = 0, No Iterations 0
diagonal:  Solving for T, Initial residual = 0, Final residual = 0, No Iterations 0
diagonal:  Solving for T, Initial residual = 0, Final residual = 0, No Iterations 0
diagonal:  Solving for T, Initial residual = 0, Final residual = 0, No Iterations 0
 T goes from min(T) [0 0 0 0 0 0 0] 2.33785e-20 to max(T) [0 0 0 0 0 0 0] 0.952127

ExecutionTime = 3.12 s  ClockTime = 52 s

Time = 0.09
Courant Number mean: 0.374204 max: 0.734597
diagonal:  Solving for T, Initial residual = 0, Final residual = 0, No Iterations 0
diagonal:  Solving for T, Initial residual = 0, Final residual = 0, No Iterations 0
diagonal:  Solving for T, Initial residual = 0, Final residual = 0, No Iterations 0
diagonal:  Solving for T, Initial residual = 0, Final residual = 0, No Iterations 0
 T goes from min(T) [0 0 0 0 0 0 0] 2.61351e-20 to max(T) [0 0 0 0 0 0 0] 0.950426

ExecutionTime = 3.25 s  ClockTime = 55 s

Time = 0.1
Courant Number mean: 0.374043 max: 0.734389
diagonal:  Solving for T, Initial residual = 0, Final residual = 0, No Iterations 0
diagonal:  Solving for T, Initial residual = 0, Final residual = 0, No Iterations 0
diagonal:  Solving for T, Initial residual = 0, Final residual = 0, No Iterations 0
diagonal:  Solving for T, Initial residual = 0, Final residual = 0, No Iterations 0
 T goes from min(T) [0 0 0 0 0 0 0] 3.23907e-20 to max(T) [0 0 0 0 0 0 0] 0.953487

ExecutionTime = 3.37 s  ClockTime = 57 s

Time = 0.11
Courant Number mean: 0.37399 max: 0.734202
diagonal:  Solving for T, Initial residual = 0, Final residual = 0, No Iterations 0
diagonal:  Solving for T, Initial residual = 0, Final residual = 0, No Iterations 0
diagonal:  Solving for T, Initial residual = 0, Final residual = 0, No Iterations 0
diagonal:  Solving for T, Initial residual = 0, Final residual = 0, No Iterations 0
 T goes from min(T) [0 0 0 0 0 0 0] 2.90261e-20 to max(T) [0 0 0 0 0 0 0] 0.953741

ExecutionTime = 3.51 s  ClockTime = 60 s

Time = 0.12
Courant Number mean: 0.373987 max: 0.733965
diagonal:  Solving for T, Initial residual = 0, Final residual = 0, No Iterations 0
diagonal:  Solving for T, Initial residual = 0, Final residual = 0, No Iterations 0
diagonal:  Solving for T, Initial residual = 0, Final residual = 0, No Iterations 0
diagonal:  Solving for T, Initial residual = 0, Final residual = 0, No Iterations 0
 T goes from min(T) [0 0 0 0 0 0 0] 3.03271e-20 to max(T) [0 0 0 0 0 0 0] 0.950784

ExecutionTime = 3.64 s  ClockTime = 62 s

Time = 0.13
Courant Number mean: 0.373899 max: 0.733721
diagonal:  Solving for T, Initial residual = 0, Final residual = 0, No Iterations 0
diagonal:  Solving for T, Initial residual = 0, Final residual = 0, No Iterations 0
diagonal:  Solving for T, Initial residual = 0, Final residual = 0, No Iterations 0
diagonal:  Solving for T, Initial residual = 0, Final residual = 0, No Iterations 0
 T goes from min(T) [0 0 0 0 0 0 0] 3.6511e-20 to max(T) [0 0 0 0 0 0 0] 0.953154

ExecutionTime = 3.77 s  ClockTime = 65 s

Time = 0.14
Courant Number mean: 0.373725 max: 0.733469
diagonal:  Solving for T, Initial residual = 0, Final residual = 0, No Iterations 0
diagonal:  Solving for T, Initial residual = 0, Final residual = 0, No Iterations 0
diagonal:  Solving for T, Initial residual = 0, Final residual = 0, No Iterations 0
diagonal:  Solving for T, Initial residual = 0, Final residual = 0, No Iterations 0
 T goes from min(T) [0 0 0 0 0 0 0] 3.53536e-20 to max(T) [0 0 0 0 0 0 0] 0.95439

ExecutionTime = 3.89 s  ClockTime = 67 s

Time = 0.15
Courant Number mean: 0.373601 max: 0.733168
diagonal:  Solving for T, Initial residual = 0, Final residual = 0, No Iterations 0
diagonal:  Solving for T, Initial residual = 0, Final residual = 0, No Iterations 0
diagonal:  Solving for T, Initial residual = 0, Final residual = 0, No Iterations 0
diagonal:  Solving for T, Initial residual = 0, Final residual = 0, No Iterations 0
 T goes from min(T) [0 0 0 0 0 0 0] 3.46106e-20 to max(T) [0 0 0 0 0 0 0] 0.952548

ExecutionTime = 4.02 s  ClockTime = 70 s

Time = 0.16
Courant Number mean: 0.373584 max: 0.732888
diagonal:  Solving for T, Initial residual = 0, Final residual = 0, No Iterations 0
diagonal:  Solving for T, Initial residual = 0, Final residual = 0, No Iterations 0
diagonal:  Solving for T, Initial residual = 0, Final residual = 0, No Iterations 0
diagonal:  Solving for T, Initial residual = 0, Final residual = 0, No Iterations 0
 T goes from min(T) [0 0 0 0 0 0 0] 3.89423e-20 to max(T) [0 0 0 0 0 0 0] 0.952396

ExecutionTime = 4.15 s  ClockTime = 72 s

Time = 0.17
Courant Number mean: 0.373479 max: 0.732528
diagonal:  Solving for T, Initial residual = 0, Final residual = 0, No Iterations 0
diagonal:  Solving for T, Initial residual = 0, Final residual = 0, No Iterations 0
diagonal:  Solving for T, Initial residual = 0, Final residual = 0, No Iterations 0
diagonal:  Solving for T, Initial residual = 0, Final residual = 0, No Iterations 0
 T goes from min(T) [0 0 0 0 0 0 0] 4.29187e-20 to max(T) [0 0 0 0 0 0 0] 0.954462

ExecutionTime = 4.27 s  ClockTime = 75 s

Time = 0.18
Courant Number mean: 0.373292 max: 0.732232
diagonal:  Solving for T, Initial residual = 0, Final residual = 0, No Iterations 0
diagonal:  Solving for T, Initial residual = 0, Final residual = 0, No Iterations 0
diagonal:  Solving for T, Initial residual = 0, Final residual = 0, No Iterations 0
diagonal:  Solving for T, Initial residual = 0, Final residual = 0, No Iterations 0
 T goes from min(T) [0 0 0 0 0 0 0] 3.95067e-20 to max(T) [0 0 0 0 0 0 0] 0.95359

ExecutionTime = 4.39 s  ClockTime = 77 s

Time = 0.19
Courant Number mean: 0.373099 max: 0.731817
diagonal:  Solving for T, Initial residual = 0, Final residual = 0, No Iterations 0
diagonal:  Solving for T, Initial residual = 0, Final residual = 0, No Iterations 0
diagonal:  Solving for T, Initial residual = 0, Final residual = 0, No Iterations 0
diagonal:  Solving for T, Initial residual = 0, Final residual = 0, No Iterations 0
 T goes from min(T) [0 0 0 0 0 0 0] 4.1526e-20 to max(T) [0 0 0 0 0 0 0] 0.9514

ExecutionTime = 4.52 s  ClockTime = 79 s

Time = 0.2
Courant Number mean: 0.373065 max: 0.731493
diagonal:  Solving for T, Initial residual = 0, Final residual = 0, No Iterations 0
diagonal:  Solving for T, Initial residual = 0, Final residual = 0, No Iterations 0
diagonal:  Solving for T, Initial residual = 0, Final residual = 0, No Iterations 0
diagonal:  Solving for T, Initial residual = 0, Final residual = 0, No Iterations 0
 T goes from min(T) [0 0 0 0 0 0 0] 4.90379e-20 to max(T) [0 0 0 0 0 0 0] 0.954209

ExecutionTime = 4.64 s  ClockTime = 82 s

Time = 0.21
Courant Number mean: 0.372947 max: 0.731017
diagonal:  Solving for T, Initial residual = 0, Final residual = 0, No Iterations 0
diagonal:  Solving for T, Initial residual = 0, Final residual = 0, No Iterations 0
diagonal:  Solving for T, Initial residual = 0, Final residual = 0, No Iterations 0
diagonal:  Solving for T, Initial residual = 0, Final residual = 0, No Iterations 0
 T goes from min(T) [0 0 0 0 0 0 0] 4.56258e-20 to max(T) [0 0 0 0 0 0 0] 0.954217

ExecutionTime = 4.77 s  ClockTime = 84 s

Time = 0.22
Courant Number mean: 0.372744 max: 0.730678
diagonal:  Solving for T, Initial residual = 0, Final residual = 0, No Iterations 0
diagonal:  Solving for T, Initial residual = 0, Final residual = 0, No Iterations 0
diagonal:  Solving for T, Initial residual = 0, Final residual = 0, No Iterations 0
diagonal:  Solving for T, Initial residual = 0, Final residual = 0, No Iterations 0
 T goes from min(T) [0 0 0 0 0 0 0] 4.48429e-20 to max(T) [0 0 0 0 0 0 0] 0.951692

ExecutionTime = 4.89 s  ClockTime = 86 s

Time = 0.23
Courant Number mean: 0.372484 max: 0.730151
diagonal:  Solving for T, Initial residual = 0, Final residual = 0, No Iterations 0
diagonal:  Solving for T, Initial residual = 0, Final residual = 0, No Iterations 0
diagonal:  Solving for T, Initial residual = 0, Final residual = 0, No Iterations 0
diagonal:  Solving for T, Initial residual = 0, Final residual = 0, No Iterations 0
 T goes from min(T) [0 0 0 0 0 0 0] 4.97433e-20 to max(T) [0 0 0 0 0 0 0] 0.953641

ExecutionTime = 5.01 s  ClockTime = 89 s

Time = 0.24
Courant Number mean: 0.372433 max: 0.729782
diagonal:  Solving for T, Initial residual = 0, Final residual = 0, No Iterations 0
diagonal:  Solving for T, Initial residual = 0, Final residual = 0, No Iterations 0
diagonal:  Solving for T, Initial residual = 0, Final residual = 0, No Iterations 0
diagonal:  Solving for T, Initial residual = 0, Final residual = 0, No Iterations 0
 T goes from min(T) [0 0 0 0 0 0 0] 5.36201e-20 to max(T) [0 0 0 0 0 0 0] 0.9545

ExecutionTime = 5.13 s  ClockTime = 91 s

Time = 0.25
Courant Number mean: 0.372301 max: 0.729192
diagonal:  Solving for T, Initial residual = 0, Final residual = 0, No Iterations 0
diagonal:  Solving for T, Initial residual = 0, Final residual = 0, No Iterations 0
diagonal:  Solving for T, Initial residual = 0, Final residual = 0, No Iterations 0
diagonal:  Solving for T, Initial residual = 0, Final residual = 0, No Iterations 0
 T goes from min(T) [0 0 0 0 0 0 0] 4.94324e-20 to max(T) [0 0 0 0 0 0 0] 0.952939

ExecutionTime = 5.27 s  ClockTime = 93 s

Time = 0.26
Courant Number mean: 0.372081 max: 0.728808
diagonal:  Solving for T, Initial residual = 0, Final residual = 0, No Iterations 0
diagonal:  Solving for T, Initial residual = 0, Final residual = 0, No Iterations 0
diagonal:  Solving for T, Initial residual = 0, Final residual = 0, No Iterations 0
diagonal:  Solving for T, Initial residual = 0, Final residual = 0, No Iterations 0
 T goes from min(T) [0 0 0 0 0 0 0] 5.13705e-20 to max(T) [0 0 0 0 0 0 0] 0.952373

ExecutionTime = 5.39 s  ClockTime = 96 s

Time = 0.27
Courant Number mean: 0.371784 max: 0.728203
diagonal:  Solving for T, Initial residual = 0, Final residual = 0, No Iterations 0
diagonal:  Solving for T, Initial residual = 0, Final residual = 0, No Iterations 0
diagonal:  Solving for T, Initial residual = 0, Final residual = 0, No Iterations 0
diagonal:  Solving for T, Initial residual = 0, Final residual = 0, No Iterations 0
 T goes from min(T) [0 0 0 0 0 0 0] 5.92469e-20 to max(T) [0 0 0 0 0 0 0] 0.954114

ExecutionTime = 5.51 s  ClockTime = 98 s

Time = 0.28
Courant Number mean: 0.371688 max: 0.727757
diagonal:  Solving for T, Initial residual = 0, Final residual = 0, No Iterations 0
diagonal:  Solving for T, Initial residual = 0, Final residual = 0, No Iterations 0
diagonal:  Solving for T, Initial residual = 0, Final residual = 0, No Iterations 0
diagonal:  Solving for T, Initial residual = 0, Final residual = 0, No Iterations 0
 T goes from min(T) [0 0 0 0 0 0 0] 5.58365e-20 to max(T) [0 0 0 0 0 0 0] 0.953535

ExecutionTime = 5.62 s  ClockTime = 100 s

Time = 0.29
Courant Number mean: 0.371541 max: 0.727123
diagonal:  Solving for T, Initial residual = 0, Final residual = 0, No Iterations 0
diagonal:  Solving for T, Initial residual = 0, Final residual = 0, No Iterations 0
diagonal:  Solving for T, Initial residual = 0, Final residual = 0, No Iterations 0
diagonal:  Solving for T, Initial residual = 0, Final residual = 0, No Iterations 0
 T goes from min(T) [0 0 0 0 0 0 0] 5.43323e-20 to max(T) [0 0 0 0 0 0 0] 0.950877

ExecutionTime = 5.74 s  ClockTime = 102 s

Time = 0.3
Courant Number mean: 0.371308 max: 0.726625
diagonal:  Solving for T, Initial residual = 0, Final residual = 0, No Iterations 0
diagonal:  Solving for T, Initial residual = 0, Final residual = 0, No Iterations 0
diagonal:  Solving for T, Initial residual = 0, Final residual = 0, No Iterations 0
diagonal:  Solving for T, Initial residual = 0, Final residual = 0, No Iterations 0
 T goes from min(T) [0 0 0 0 0 0 0] 5.90591e-20 to max(T) [0 0 0 0 0 0 0] 0.9522

ExecutionTime = 5.86 s  ClockTime = 105 s

Time = 0.31
Courant Number mean: 0.370997 max: 0.725976
diagonal:  Solving for T, Initial residual = 0, Final residual = 0, No Iterations 0
diagonal:  Solving for T, Initial residual = 0, Final residual = 0, No Iterations 0
diagonal:  Solving for T, Initial residual = 0, Final residual = 0, No Iterations 0
diagonal:  Solving for T, Initial residual = 0, Final residual = 0, No Iterations 0
 T goes from min(T) [0 0 0 0 0 0 0] 6.46663e-20 to max(T) [0 0 0 0 0 0 0] 0.952611

ExecutionTime = 5.98 s  ClockTime = 107 s

Time = 0.32
Courant Number mean: 0.370833 max: 0.725417
diagonal:  Solving for T, Initial residual = 0, Final residual = 0, No Iterations 0
diagonal:  Solving for T, Initial residual = 0, Final residual = 0, No Iterations 0
diagonal:  Solving for T, Initial residual = 0, Final residual = 0, No Iterations 0
diagonal:  Solving for T, Initial residual = 0, Final residual = 0, No Iterations 0
 T goes from min(T) [0 0 0 0 0 0 0] 5.90347e-20 to max(T) [0 0 0 0 0 0 0] 0.952008

ExecutionTime = 6.13 s  ClockTime = 110 s

Time = 0.33
Courant Number mean: 0.37067 max: 0.724741
diagonal:  Solving for T, Initial residual = 0, Final residual = 0, No Iterations 0
diagonal:  Solving for T, Initial residual = 0, Final residual = 0, No Iterations 0
diagonal:  Solving for T, Initial residual = 0, Final residual = 0, No Iterations 0
diagonal:  Solving for T, Initial residual = 0, Final residual = 0, No Iterations 0
 T goes from min(T) [0 0 0 0 0 0 0] 6.02425e-20 to max(T) [0 0 0 0 0 0 0] 0.949318

ExecutionTime = 6.28 s  ClockTime = 113 s

Time = 0.34
Courant Number mean: 0.370423 max: 0.724128
diagonal:  Solving for T, Initial residual = 0, Final residual = 0, No Iterations 0
diagonal:  Solving for T, Initial residual = 0, Final residual = 0, No Iterations 0
diagonal:  Solving for T, Initial residual = 0, Final residual = 0, No Iterations 0
diagonal:  Solving for T, Initial residual = 0, Final residual = 0, No Iterations 0
 T goes from min(T) [0 0 0 0 0 0 0] 6.7803e-20 to max(T) [0 0 0 0 0 0 0] 0.951947

ExecutionTime = 6.4 s  ClockTime = 115 s

Time = 0.35
Courant Number mean: 0.370096 max: 0.723437
diagonal:  Solving for T, Initial residual = 0, Final residual = 0, No Iterations 0
diagonal:  Solving for T, Initial residual = 0, Final residual = 0, No Iterations 0
diagonal:  Solving for T, Initial residual = 0, Final residual = 0, No Iterations 0
diagonal:  Solving for T, Initial residual = 0, Final residual = 0, No Iterations 0
 T goes from min(T) [0 0 0 0 0 0 0] 6.59668e-20 to max(T) [0 0 0 0 0 0 0] 0.953023

ExecutionTime = 6.52 s  ClockTime = 117 s

Time = 0.36
Courant Number mean: 0.369869 max: 0.722766
diagonal:  Solving for T, Initial residual = 0, Final residual = 0, No Iterations 0
diagonal:  Solving for T, Initial residual = 0, Final residual = 0, No Iterations 0
diagonal:  Solving for T, Initial residual = 0, Final residual = 0, No Iterations 0
diagonal:  Solving for T, Initial residual = 0, Final residual = 0, No Iterations 0
 T goes from min(T) [0 0 0 0 0 0 0] -3.2435e-17 to max(T) [0 0 0 0 0 0 0] 0.952146

ExecutionTime = 6.65 s  ClockTime = 120 s

Time = 0.37
Courant Number mean: 0.369689 max: 0.722046
diagonal:  Solving for T, Initial residual = 0, Final residual = 0, No Iterations 0
diagonal:  Solving for T, Initial residual = 0, Final residual = 0, No Iterations 0
diagonal:  Solving for T, Initial residual = 0, Final residual = 0, No Iterations 0
diagonal:  Solving for T, Initial residual = 0, Final residual = 0, No Iterations 0
 T goes from min(T) [0 0 0 0 0 0 0] -2.55466e-16 to max(T) [0 0 0 0 0 0 0] 0.950098

ExecutionTime = 6.77 s  ClockTime = 122 s

Time = 0.38
Courant Number mean: 0.369429 max: 0.72132
diagonal:  Solving for T, Initial residual = 0, Final residual = 0, No Iterations 0
diagonal:  Solving for T, Initial residual = 0, Final residual = 0, No Iterations 0
diagonal:  Solving for T, Initial residual = 0, Final residual = 0, No Iterations 0
diagonal:  Solving for T, Initial residual = 0, Final residual = 0, No Iterations 0
 T goes from min(T) [0 0 0 0 0 0 0] -1.4828e-15 to max(T) [0 0 0 0 0 0 0] 0.95264

ExecutionTime = 6.9 s  ClockTime = 125 s

Time = 0.39
Courant Number mean: 0.369088 max: 0.720586
diagonal:  Solving for T, Initial residual = 0, Final residual = 0, No Iterations 0
diagonal:  Solving for T, Initial residual = 0, Final residual = 0, No Iterations 0
diagonal:  Solving for T, Initial residual = 0, Final residual = 0, No Iterations 0
diagonal:  Solving for T, Initial residual = 0, Final residual = 0, No Iterations 0
 T goes from min(T) [0 0 0 0 0 0 0] -6.56038e-15 to max(T) [0 0 0 0 0 0 0] 0.953249

ExecutionTime = 7.03 s  ClockTime = 127 s

Time = 0.4
Courant Number mean: 0.368794 max: 0.719804
diagonal:  Solving for T, Initial residual = 0, Final residual = 0, No Iterations 0
diagonal:  Solving for T, Initial residual = 0, Final residual = 0, No Iterations 0
diagonal:  Solving for T, Initial residual = 0, Final residual = 0, No Iterations 0
diagonal:  Solving for T, Initial residual = 0, Final residual = 0, No Iterations 0
 T goes from min(T) [0 0 0 0 0 0 0] -1.04139e-14 to max(T) [0 0 0 0 0 0 0] 0.952127

ExecutionTime = 7.15 s  ClockTime = 130 s

Time = 0.41
Courant Number mean: 0.368601 max: 0.719042
diagonal:  Solving for T, Initial residual = 0, Final residual = 0, No Iterations 0
diagonal:  Solving for T, Initial residual = 0, Final residual = 0, No Iterations 0
diagonal:  Solving for T, Initial residual = 0, Final residual = 0, No Iterations 0
diagonal:  Solving for T, Initial residual = 0, Final residual = 0, No Iterations 0
 T goes from min(T) [0 0 0 0 0 0 0] -1.34653e-13 to max(T) [0 0 0 0 0 0 0] 0.949473

ExecutionTime = 7.29 s  ClockTime = 133 s

Time = 0.42
Courant Number mean: 0.368324 max: 0.718202
diagonal:  Solving for T, Initial residual = 0, Final residual = 0, No Iterations 0
diagonal:  Solving for T, Initial residual = 0, Final residual = 0, No Iterations 0
diagonal:  Solving for T, Initial residual = 0, Final residual = 0, No Iterations 0
diagonal:  Solving for T, Initial residual = 0, Final residual = 0, No Iterations 0
 T goes from min(T) [0 0 0 0 0 0 0] -2.58182e-13 to max(T) [0 0 0 0 0 0 0] 0.9507

ExecutionTime = 7.41 s  ClockTime = 136 s

Time = 0.43
Courant Number mean: 0.367972 max: 0.717426
diagonal:  Solving for T, Initial residual = 0, Final residual = 0, No Iterations 0
diagonal:  Solving for T, Initial residual = 0, Final residual = 0, No Iterations 0
diagonal:  Solving for T, Initial residual = 0, Final residual = 0, No Iterations 0
diagonal:  Solving for T, Initial residual = 0, Final residual = 0, No Iterations 0
 T goes from min(T) [0 0 0 0 0 0 0] -3.71566e-11 to max(T) [0 0 0 0 0 0 0] 0.952067

ExecutionTime = 7.54 s  ClockTime = 138 s

Time = 0.44
Courant Number mean: 0.367614 max: 0.716534
diagonal:  Solving for T, Initial residual = 0, Final residual = 0, No Iterations 0
diagonal:  Solving for T, Initial residual = 0, Final residual = 0, No Iterations 0
diagonal:  Solving for T, Initial residual = 0, Final residual = 0, No Iterations 0
diagonal:  Solving for T, Initial residual = 0, Final residual = 0, No Iterations 0
 T goes from min(T) [0 0 0 0 0 0 0] -1.93809e-10 to max(T) [0 0 0 0 0 0 0] 0.9517

ExecutionTime = 7.66 s  ClockTime = 141 s

Time = 0.45
Courant Number mean: 0.367404 max: 0.715729
diagonal:  Solving for T, Initial residual = 0, Final residual = 0, No Iterations 0
diagonal:  Solving for T, Initial residual = 0, Final residual = 0, No Iterations 0
diagonal:  Solving for T, Initial residual = 0, Final residual = 0, No Iterations 0
diagonal:  Solving for T, Initial residual = 0, Final residual = 0, No Iterations 0
 T goes from min(T) [0 0 0 0 0 0 0] -7.34282e-10 to max(T) [0 0 0 0 0 0 0] 0.949805

ExecutionTime = 7.8 s  ClockTime = 145 s

Time = 0.46
Courant Number mean: 0.367114 max: 0.714778
diagonal:  Solving for T, Initial residual = 0, Final residual = 0, No Iterations 0
diagonal:  Solving for T, Initial residual = 0, Final residual = 0, No Iterations 0
diagonal:  Solving for T, Initial residual = 0, Final residual = 0, No Iterations 0
diagonal:  Solving for T, Initial residual = 0, Final residual = 0, No Iterations 0
 T goes from min(T) [0 0 0 0 0 0 0] -1.71273e-09 to max(T) [0 0 0 0 0 0 0] 0.946787

ExecutionTime = 7.92 s  ClockTime = 148 s

Time = 0.47
Courant Number mean: 0.366748 max: 0.713958
diagonal:  Solving for T, Initial residual = 0, Final residual = 0, No Iterations 0
diagonal:  Solving for T, Initial residual = 0, Final residual = 0, No Iterations 0
diagonal:  Solving for T, Initial residual = 0, Final residual = 0, No Iterations 0
diagonal:  Solving for T, Initial residual = 0, Final residual = 0, No Iterations 0
 T goes from min(T) [0 0 0 0 0 0 0] -3.37151e-09 to max(T) [0 0 0 0 0 0 0] 0.950562

ExecutionTime = 8.07 s  ClockTime = 153 s

Time = 0.48
Courant Number mean: 0.366328 max: 0.712957
diagonal:  Solving for T, Initial residual = 0, Final residual = 0, No Iterations 0
diagonal:  Solving for T, Initial residual = 0, Final residual = 0, No Iterations 0
diagonal:  Solving for T, Initial residual = 0, Final residual = 0, No Iterations 0
diagonal:  Solving for T, Initial residual = 0, Final residual = 0, No Iterations 0
 T goes from min(T) [0 0 0 0 0 0 0] -6.058e-09 to max(T) [0 0 0 0 0 0 0] 0.949765

ExecutionTime = 8.2 s  ClockTime = 156 s

Time = 0.49
Courant Number mean: 0.366104 max: 0.71211
diagonal:  Solving for T, Initial residual = 0, Final residual = 0, No Iterations 0
diagonal:  Solving for T, Initial residual = 0, Final residual = 0, No Iterations 0
diagonal:  Solving for T, Initial residual = 0, Final residual = 0, No Iterations 0
diagonal:  Solving for T, Initial residual = 0, Final residual = 0, No Iterations 0
 T goes from min(T) [0 0 0 0 0 0 0] -1.09324e-08 to max(T) [0 0 0 0 0 0 0] 0.950014

ExecutionTime = 8.36 s  ClockTime = 159 s

Time = 0.5
Courant Number mean: 0.365801 max: 0.711048
diagonal:  Solving for T, Initial residual = 0, Final residual = 0, No Iterations 0
diagonal:  Solving for T, Initial residual = 0, Final residual = 0, No Iterations 0
diagonal:  Solving for T, Initial residual = 0, Final residual = 0, No Iterations 0
diagonal:  Solving for T, Initial residual = 0, Final residual = 0, No Iterations 0
 T goes from min(T) [0 0 0 0 0 0 0] -1.52633e-08 to max(T) [0 0 0 0 0 0 0] 0.946579

ExecutionTime = 8.49 s  ClockTime = 162 s

Time = 0.51
Courant Number mean: 0.365421 max: 0.710186
diagonal:  Solving for T, Initial residual = 0, Final residual = 0, No Iterations 0
diagonal:  Solving for T, Initial residual = 0, Final residual = 0, No Iterations 0
diagonal:  Solving for T, Initial residual = 0, Final residual = 0, No Iterations 0
diagonal:  Solving for T, Initial residual = 0, Final residual = 0, No Iterations 0
 T goes from min(T) [0 0 0 0 0 0 0] -2.82376e-08 to max(T) [0 0 0 0 0 0 0] 0.946536

ExecutionTime = 8.61 s  ClockTime = 165 s

Time = 0.52
Courant Number mean: 0.364963 max: 0.709111
diagonal:  Solving for T, Initial residual = 0, Final residual = 0, No Iterations 0
diagonal:  Solving for T, Initial residual = 0, Final residual = 0, No Iterations 0
diagonal:  Solving for T, Initial residual = 0, Final residual = 0, No Iterations 0
diagonal:  Solving for T, Initial residual = 0, Final residual = 0, No Iterations 0
 T goes from min(T) [0 0 0 0 0 0 0] -4.09898e-08 to max(T) [0 0 0 0 0 0 0] 0.948481

ExecutionTime = 8.74 s  ClockTime = 167 s

Time = 0.53
Courant Number mean: 0.3647 max: 0.708188
diagonal:  Solving for T, Initial residual = 0, Final residual = 0, No Iterations 0
diagonal:  Solving for T, Initial residual = 0, Final residual = 0, No Iterations 0
diagonal:  Solving for T, Initial residual = 0, Final residual = 0, No Iterations 0
diagonal:  Solving for T, Initial residual = 0, Final residual = 0, No Iterations 0
 T goes from min(T) [0 0 0 0 0 0 0] -5.85809e-08 to max(T) [0 0 0 0 0 0 0] 0.949277

ExecutionTime = 8.88 s  ClockTime = 170 s

Time = 0.54
Courant Number mean: 0.364386 max: 0.707085
diagonal:  Solving for T, Initial residual = 0, Final residual = 0, No Iterations 0
diagonal:  Solving for T, Initial residual = 0, Final residual = 0, No Iterations 0
diagonal:  Solving for T, Initial residual = 0, Final residual = 0, No Iterations 0
diagonal:  Solving for T, Initial residual = 0, Final residual = 0, No Iterations 0
 T goes from min(T) [0 0 0 0 0 0 0] -8.97578e-08 to max(T) [0 0 0 0 0 0 0] 0.948342

ExecutionTime = 9 s  ClockTime = 173 s

Time = 0.55
Courant Number mean: 0.363993 max: 0.706112
diagonal:  Solving for T, Initial residual = 0, Final residual = 0, No Iterations 0
diagonal:  Solving for T, Initial residual = 0, Final residual = 0, No Iterations 0
diagonal:  Solving for T, Initial residual = 0, Final residual = 0, No Iterations 0
diagonal:  Solving for T, Initial residual = 0, Final residual = 0, No Iterations 0
 T goes from min(T) [0 0 0 0 0 0 0] -1.19303e-07 to max(T) [0 0 0 0 0 0 0] 0.946306

ExecutionTime = 9.16 s  ClockTime = 176 s

Time = 0.56
Courant Number mean: 0.363521 max: 0.704995
diagonal:  Solving for T, Initial residual = 0, Final residual = 0, No Iterations 0
diagonal:  Solving for T, Initial residual = 0, Final residual = 0, No Iterations 0
diagonal:  Solving for T, Initial residual = 0, Final residual = 0, No Iterations 0
diagonal:  Solving for T, Initial residual = 0, Final residual = 0, No Iterations 0
 T goes from min(T) [0 0 0 0 0 0 0] -1.6182e-07 to max(T) [0 0 0 0 0 0 0] 0.94301

ExecutionTime = 9.29 s  ClockTime = 179 s

Time = 0.57
Courant Number mean: 0.363196 max: 0.703964
diagonal:  Solving for T, Initial residual = 0, Final residual = 0, No Iterations 0
diagonal:  Solving for T, Initial residual = 0, Final residual = 0, No Iterations 0
diagonal:  Solving for T, Initial residual = 0, Final residual = 0, No Iterations 0
diagonal:  Solving for T, Initial residual = 0, Final residual = 0, No Iterations 0
 T goes from min(T) [0 0 0 0 0 0 0] -2.46566e-07 to max(T) [0 0 0 0 0 0 0] 0.94546

ExecutionTime = 9.42 s  ClockTime = 182 s

Time = 0.58
Courant Number mean: 0.362871 max: 0.70282
diagonal:  Solving for T, Initial residual = 0, Final residual = 0, No Iterations 0
diagonal:  Solving for T, Initial residual = 0, Final residual = 0, No Iterations 0
diagonal:  Solving for T, Initial residual = 0, Final residual = 0, No Iterations 0
diagonal:  Solving for T, Initial residual = 0, Final residual = 0, No Iterations 0
 T goes from min(T) [0 0 0 0 0 0 0] -3.27163e-07 to max(T) [0 0 0 0 0 0 0] 0.947072

ExecutionTime = 9.56 s  ClockTime = 185 s

Time = 0.59
Courant Number mean: 0.362465 max: 0.701738
diagonal:  Solving for T, Initial residual = 0, Final residual = 0, No Iterations 0
diagonal:  Solving for T, Initial residual = 0, Final residual = 0, No Iterations 0
diagonal:  Solving for T, Initial residual = 0, Final residual = 0, No Iterations 0
diagonal:  Solving for T, Initial residual = 0, Final residual = 0, No Iterations 0
 T goes from min(T) [0 0 0 0 0 0 0] -4.16968e-07 to max(T) [0 0 0 0 0 0 0] 0.947139

ExecutionTime = 9.7 s  ClockTime = 187 s

Time = 0.6
Courant Number mean: 0.361981 max: 0.70058
diagonal:  Solving for T, Initial residual = 0, Final residual = 0, No Iterations 0
diagonal:  Solving for T, Initial residual = 0, Final residual = 0, No Iterations 0
diagonal:  Solving for T, Initial residual = 0, Final residual = 0, No Iterations 0
diagonal:  Solving for T, Initial residual = 0, Final residual = 0, No Iterations 0
 T goes from min(T) [0 0 0 0 0 0 0] -5.71218e-07 to max(T) [0 0 0 0 0 0 0] 0.945866

ExecutionTime = 9.82 s  ClockTime = 190 s

Time = 0.61
Courant Number mean: 0.361595 max: 0.699442
diagonal:  Solving for T, Initial residual = 0, Final residual = 0, No Iterations 0
diagonal:  Solving for T, Initial residual = 0, Final residual = 0, No Iterations 0
diagonal:  Solving for T, Initial residual = 0, Final residual = 0, No Iterations 0
diagonal:  Solving for T, Initial residual = 0, Final residual = 0, No Iterations 0
 T goes from min(T) [0 0 0 0 0 0 0] -7.76637e-07 to max(T) [0 0 0 0 0 0 0] 0.943369

ExecutionTime = 9.95 s  ClockTime = 193 s

Time = 0.62
Courant Number mean: 0.361259 max: 0.698258
diagonal:  Solving for T, Initial residual = 0, Final residual = 0, No Iterations 0
diagonal:  Solving for T, Initial residual = 0, Final residual = 0, No Iterations 0
diagonal:  Solving for T, Initial residual = 0, Final residual = 0, No Iterations 0
diagonal:  Solving for T, Initial residual = 0, Final residual = 0, No Iterations 0
 T goes from min(T) [0 0 0 0 0 0 0] -9.64e-07 to max(T) [0 0 0 0 0 0 0] 0.940264

ExecutionTime = 10.08 s  ClockTime = 195 s

Time = 0.63
Courant Number mean: 0.360843 max: 0.697067
diagonal:  Solving for T, Initial residual = 0, Final residual = 0, No Iterations 0
diagonal:  Solving for T, Initial residual = 0, Final residual = 0, No Iterations 0
diagonal:  Solving for T, Initial residual = 0, Final residual = 0, No Iterations 0
diagonal:  Solving for T, Initial residual = 0, Final residual = 0, No Iterations 0
 T goes from min(T) [0 0 0 0 0 0 0] -1.29516e-06 to max(T) [0 0 0 0 0 0 0] 0.940233

ExecutionTime = 10.21 s  ClockTime = 198 s

Time = 0.64
Courant Number mean: 0.360345 max: 0.695869
diagonal:  Solving for T, Initial residual = 0, Final residual = 0, No Iterations 0
diagonal:  Solving for T, Initial residual = 0, Final residual = 0, No Iterations 0
diagonal:  Solving for T, Initial residual = 0, Final residual = 0, No Iterations 0
diagonal:  Solving for T, Initial residual = 0, Final residual = 0, No Iterations 0
 T goes from min(T) [0 0 0 0 0 0 0] -1.62624e-06 to max(T) [0 0 0 0 0 0 0] 0.942956

ExecutionTime = 10.35 s  ClockTime = 201 s

Time = 0.65
Courant Number mean: 0.359898 max: 0.694625
diagonal:  Solving for T, Initial residual = 0, Final residual = 0, No Iterations 0
diagonal:  Solving for T, Initial residual = 0, Final residual = 0, No Iterations 0
diagonal:  Solving for T, Initial residual = 0, Final residual = 0, No Iterations 0
diagonal:  Solving for T, Initial residual = 0, Final residual = 0, No Iterations 0
 T goes from min(T) [0 0 0 0 0 0 0] -2.12841e-06 to max(T) [0 0 0 0 0 0 0] 0.943329

ExecutionTime = 10.48 s  ClockTime = 204 s

Time = 0.66
Courant Number mean: 0.359551 max: 0.6934
diagonal:  Solving for T, Initial residual = 0, Final residual = 0, No Iterations 0
diagonal:  Solving for T, Initial residual = 0, Final residual = 0, No Iterations 0
diagonal:  Solving for T, Initial residual = 0, Final residual = 0, No Iterations 0
diagonal:  Solving for T, Initial residual = 0, Final residual = 0, No Iterations 0
 T goes from min(T) [0 0 0 0 0 0 0] -2.526e-06 to max(T) [0 0 0 0 0 0 0] 0.943207

ExecutionTime = 10.64 s  ClockTime = 207 s

Time = 0.67
Courant Number mean: 0.359125 max: 0.692102
diagonal:  Solving for T, Initial residual = 0, Final residual = 0, No Iterations 0
diagonal:  Solving for T, Initial residual = 0, Final residual = 0, No Iterations 0
diagonal:  Solving for T, Initial residual = 0, Final residual = 0, No Iterations 0
diagonal:  Solving for T, Initial residual = 0, Final residual = 0, No Iterations 0
 T goes from min(T) [0 0 0 0 0 0 0] -3.39079e-06 to max(T) [0 0 0 0 0 0 0] 0.940422

ExecutionTime = 10.78 s  ClockTime = 210 s

Time = 0.68
Courant Number mean: 0.35862 max: 0.690864
diagonal:  Solving for T, Initial residual = 0, Final residual = 0, No Iterations 0
diagonal:  Solving for T, Initial residual = 0, Final residual = 0, No Iterations 0
diagonal:  Solving for T, Initial residual = 0, Final residual = 0, No Iterations 0
diagonal:  Solving for T, Initial residual = 0, Final residual = 0, No Iterations 0
 T goes from min(T) [0 0 0 0 0 0 0] -4.23692e-06 to max(T) [0 0 0 0 0 0 0] 0.938572

ExecutionTime = 10.9 s  ClockTime = 213 s

Time = 0.69
Courant Number mean: 0.358117 max: 0.689516
diagonal:  Solving for T, Initial residual = 0, Final residual = 0, No Iterations 0
diagonal:  Solving for T, Initial residual = 0, Final residual = 0, No Iterations 0
diagonal:  Solving for T, Initial residual = 0, Final residual = 0, No Iterations 0
diagonal:  Solving for T, Initial residual = 0, Final residual = 0, No Iterations 0
 T goes from min(T) [0 0 0 0 0 0 0] -5.24791e-06 to max(T) [0 0 0 0 0 0 0] 0.933813

ExecutionTime = 11.02 s  ClockTime = 215 s

Time = 0.7
Courant Number mean: 0.357753 max: 0.688251
diagonal:  Solving for T, Initial residual = 0, Final residual = 0, No Iterations 0
diagonal:  Solving for T, Initial residual = 0, Final residual = 0, No Iterations 0
diagonal:  Solving for T, Initial residual = 0, Final residual = 0, No Iterations 0
diagonal:  Solving for T, Initial residual = 0, Final residual = 0, No Iterations 0
 T goes from min(T) [0 0 0 0 0 0 0] -6.29256e-06 to max(T) [0 0 0 0 0 0 0] 0.93178

ExecutionTime = 11.15 s  ClockTime = 218 s

Time = 0.71
Courant Number mean: 0.357313 max: 0.686848
diagonal:  Solving for T, Initial residual = 0, Final residual = 0, No Iterations 0
diagonal:  Solving for T, Initial residual = 0, Final residual = 0, No Iterations 0
diagonal:  Solving for T, Initial residual = 0, Final residual = 0, No Iterations 0
diagonal:  Solving for T, Initial residual = 0, Final residual = 0, No Iterations 0
 T goes from min(T) [0 0 0 0 0 0 0] -7.71872e-06 to max(T) [0 0 0 0 0 0 0] 0.935694

ExecutionTime = 11.27 s  ClockTime = 221 s

Time = 0.72
Courant Number mean: 0.356808 max: 0.685568
diagonal:  Solving for T, Initial residual = 0, Final residual = 0, No Iterations 0
diagonal:  Solving for T, Initial residual = 0, Final residual = 0, No Iterations 0
diagonal:  Solving for T, Initial residual = 0, Final residual = 0, No Iterations 0
diagonal:  Solving for T, Initial residual = 0, Final residual = 0, No Iterations 0
 T goes from min(T) [0 0 0 0 0 0 0] -1.00174e-05 to max(T) [0 0 0 0 0 0 0] 0.937747

ExecutionTime = 11.4 s  ClockTime = 223 s

Time = 0.73
Courant Number mean: 0.356249 max: 0.684118
diagonal:  Solving for T, Initial residual = 0, Final residual = 0, No Iterations 0
diagonal:  Solving for T, Initial residual = 0, Final residual = 0, No Iterations 0
diagonal:  Solving for T, Initial residual = 0, Final residual = 0, No Iterations 0
diagonal:  Solving for T, Initial residual = 0, Final residual = 0, No Iterations 0
 T goes from min(T) [0 0 0 0 0 0 0] -1.16918e-05 to max(T) [0 0 0 0 0 0 0] 0.938065

ExecutionTime = 11.53 s  ClockTime = 226 s

Time = 0.74
Courant Number mean: 0.355874 max: 0.682813
diagonal:  Solving for T, Initial residual = 0, Final residual = 0, No Iterations 0
diagonal:  Solving for T, Initial residual = 0, Final residual = 0, No Iterations 0
diagonal:  Solving for T, Initial residual = 0, Final residual = 0, No Iterations 0
diagonal:  Solving for T, Initial residual = 0, Final residual = 0, No Iterations 0
 T goes from min(T) [0 0 0 0 0 0 0] -1.37686e-05 to max(T) [0 0 0 0 0 0 0] 0.936791

ExecutionTime = 11.65 s  ClockTime = 228 s

Time = 0.75
Courant Number mean: 0.355424 max: 0.681306
diagonal:  Solving for T, Initial residual = 0, Final residual = 0, No Iterations 0
diagonal:  Solving for T, Initial residual = 0, Final residual = 0, No Iterations 0
diagonal:  Solving for T, Initial residual = 0, Final residual = 0, No Iterations 0
diagonal:  Solving for T, Initial residual = 0, Final residual = 0, No Iterations 0
 T goes from min(T) [0 0 0 0 0 0 0] -1.74429e-05 to max(T) [0 0 0 0 0 0 0] 0.934819

ExecutionTime = 11.78 s  ClockTime = 231 s

Time = 0.76
Courant Number mean: 0.354909 max: 0.679987
diagonal:  Solving for T, Initial residual = 0, Final residual = 0, No Iterations 0
diagonal:  Solving for T, Initial residual = 0, Final residual = 0, No Iterations 0
diagonal:  Solving for T, Initial residual = 0, Final residual = 0, No Iterations 0
diagonal:  Solving for T, Initial residual = 0, Final residual = 0, No Iterations 0
 T goes from min(T) [0 0 0 0 0 0 0] -2.13788e-05 to max(T) [0 0 0 0 0 0 0] 0.930934

ExecutionTime = 11.9 s  ClockTime = 234 s

Time = 0.77
Courant Number mean: 0.354322 max: 0.678467
diagonal:  Solving for T, Initial residual = 0, Final residual = 0, No Iterations 0
diagonal:  Solving for T, Initial residual = 0, Final residual = 0, No Iterations 0
diagonal:  Solving for T, Initial residual = 0, Final residual = 0, No Iterations 0
diagonal:  Solving for T, Initial residual = 0, Final residual = 0, No Iterations 0
 T goes from min(T) [0 0 0 0 0 0 0] -2.48128e-05 to max(T) [0 0 0 0 0 0 0] 0.927436

ExecutionTime = 12.02 s  ClockTime = 236 s

Time = 0.78
Courant Number mean: 0.353916 max: 0.67709
diagonal:  Solving for T, Initial residual = 0, Final residual = 0, No Iterations 0
diagonal:  Solving for T, Initial residual = 0, Final residual = 0, No Iterations 0
diagonal:  Solving for T, Initial residual = 0, Final residual = 0, No Iterations 0
diagonal:  Solving for T, Initial residual = 0, Final residual = 0, No Iterations 0
 T goes from min(T) [0 0 0 0 0 0 0] -2.86941e-05 to max(T) [0 0 0 0 0 0 0] 0.922903

ExecutionTime = 12.15 s  ClockTime = 239 s

Time = 0.79
Courant Number mean: 0.353469 max: 0.675546
diagonal:  Solving for T, Initial residual = 0, Final residual = 0, No Iterations 0
diagonal:  Solving for T, Initial residual = 0, Final residual = 0, No Iterations 0
diagonal:  Solving for T, Initial residual = 0, Final residual = 0, No Iterations 0
diagonal:  Solving for T, Initial residual = 0, Final residual = 0, No Iterations 0
 T goes from min(T) [0 0 0 0 0 0 0] -3.6002e-05 to max(T) [0 0 0 0 0 0 0] 0.918648

ExecutionTime = 12.28 s  ClockTime = 242 s

Time = 0.8
Courant Number mean: 0.352941 max: 0.674122
diagonal:  Solving for T, Initial residual = 0, Final residual = 0, No Iterations 0
diagonal:  Solving for T, Initial residual = 0, Final residual = 0, No Iterations 0
diagonal:  Solving for T, Initial residual = 0, Final residual = 0, No Iterations 0
diagonal:  Solving for T, Initial residual = 0, Final residual = 0, No Iterations 0
 T goes from min(T) [0 0 0 0 0 0 0] -4.18578e-05 to max(T) [0 0 0 0 0 0 0] 0.923829

ExecutionTime = 12.41 s  ClockTime = 244 s

Time = 0.81
Courant Number mean: 0.352338 max: 0.672564
diagonal:  Solving for T, Initial residual = 0, Final residual = 0, No Iterations 0
diagonal:  Solving for T, Initial residual = 0, Final residual = 0, No Iterations 0
diagonal:  Solving for T, Initial residual = 0, Final residual = 0, No Iterations 0
diagonal:  Solving for T, Initial residual = 0, Final residual = 0, No Iterations 0
 T goes from min(T) [0 0 0 0 0 0 0] -5.07265e-05 to max(T) [0 0 0 0 0 0 0] 0.9273

ExecutionTime = 12.53 s  ClockTime = 247 s

Time = 0.82
Courant Number mean: 0.351882 max: 0.671086
diagonal:  Solving for T, Initial residual = 0, Final residual = 0, No Iterations 0
diagonal:  Solving for T, Initial residual = 0, Final residual = 0, No Iterations 0
diagonal:  Solving for T, Initial residual = 0, Final residual = 0, No Iterations 0
diagonal:  Solving for T, Initial residual = 0, Final residual = 0, No Iterations 0
 T goes from min(T) [0 0 0 0 0 0 0] -5.58103e-05 to max(T) [0 0 0 0 0 0 0] 0.928914

ExecutionTime = 12.67 s  ClockTime = 249 s

Time = 0.83
Courant Number mean: 0.351423 max: 0.669504
diagonal:  Solving for T, Initial residual = 0, Final residual = 0, No Iterations 0
diagonal:  Solving for T, Initial residual = 0, Final residual = 0, No Iterations 0
diagonal:  Solving for T, Initial residual = 0, Final residual = 0, No Iterations 0
diagonal:  Solving for T, Initial residual = 0, Final residual = 0, No Iterations 0
 T goes from min(T) [0 0 0 0 0 0 0] -6.55194e-05 to max(T) [0 0 0 0 0 0 0] 0.929144

ExecutionTime = 12.79 s  ClockTime = 252 s

Time = 0.84
Courant Number mean: 0.350889 max: 0.667978
diagonal:  Solving for T, Initial residual = 0, Final residual = 0, No Iterations 0
diagonal:  Solving for T, Initial residual = 0, Final residual = 0, No Iterations 0
diagonal:  Solving for T, Initial residual = 0, Final residual = 0, No Iterations 0
diagonal:  Solving for T, Initial residual = 0, Final residual = 0, No Iterations 0
 T goes from min(T) [0 0 0 0 0 0 0] -8.27194e-05 to max(T) [0 0 0 0 0 0 0] 0.927245

ExecutionTime = 12.91 s  ClockTime = 254 s

Time = 0.85
Courant Number mean: 0.350284 max: 0.666383
diagonal:  Solving for T, Initial residual = 0, Final residual = 0, No Iterations 0
diagonal:  Solving for T, Initial residual = 0, Final residual = 0, No Iterations 0
diagonal:  Solving for T, Initial residual = 0, Final residual = 0, No Iterations 0
diagonal:  Solving for T, Initial residual = 0, Final residual = 0, No Iterations 0
 T goes from min(T) [0 0 0 0 0 0 0] -9.39026e-05 to max(T) [0 0 0 0 0 0 0] 0.924273

ExecutionTime = 13.03 s  ClockTime = 256 s

Time = 0.86
Courant Number mean: 0.349772 max: 0.664806
diagonal:  Solving for T, Initial residual = 0, Final residual = 0, No Iterations 0
diagonal:  Solving for T, Initial residual = 0, Final residual = 0, No Iterations 0
diagonal:  Solving for T, Initial residual = 0, Final residual = 0, No Iterations 0
diagonal:  Solving for T, Initial residual = 0, Final residual = 0, No Iterations 0
 T goes from min(T) [0 0 0 0 0 0 0] -0.000109149 to max(T) [0 0 0 0 0 0 0] 0.920182

ExecutionTime = 13.16 s  ClockTime = 259 s

Time = 0.87
Courant Number mean: 0.3493 max: 0.663186
diagonal:  Solving for T, Initial residual = 0, Final residual = 0, No Iterations 0
diagonal:  Solving for T, Initial residual = 0, Final residual = 0, No Iterations 0
diagonal:  Solving for T, Initial residual = 0, Final residual = 0, No Iterations 0
diagonal:  Solving for T, Initial residual = 0, Final residual = 0, No Iterations 0
 T goes from min(T) [0 0 0 0 0 0 0] -0.000124453 to max(T) [0 0 0 0 0 0 0] 0.9154

ExecutionTime = 13.29 s  ClockTime = 261 s

Time = 0.88
Courant Number mean: 0.34876 max: 0.661559
diagonal:  Solving for T, Initial residual = 0, Final residual = 0, No Iterations 0
diagonal:  Solving for T, Initial residual = 0, Final residual = 0, No Iterations 0
diagonal:  Solving for T, Initial residual = 0, Final residual = 0, No Iterations 0
diagonal:  Solving for T, Initial residual = 0, Final residual = 0, No Iterations 0
 T goes from min(T) [0 0 0 0 0 0 0] -0.000146135 to max(T) [0 0 0 0 0 0 0] 0.909959

ExecutionTime = 13.4 s  ClockTime = 263 s

Time = 0.89
Courant Number mean: 0.348155 max: 0.659927
diagonal:  Solving for T, Initial residual = 0, Final residual = 0, No Iterations 0
diagonal:  Solving for T, Initial residual = 0, Final residual = 0, No Iterations 0
diagonal:  Solving for T, Initial residual = 0, Final residual = 0, No Iterations 0
diagonal:  Solving for T, Initial residual = 0, Final residual = 0, No Iterations 0
 T goes from min(T) [0 0 0 0 0 0 0] -0.000173999 to max(T) [0 0 0 0 0 0 0] 0.906914

ExecutionTime = 13.53 s  ClockTime = 266 s

Time = 0.9
Courant Number mean: 0.34759 max: 0.658252
diagonal:  Solving for T, Initial residual = 0, Final residual = 0, No Iterations 0
diagonal:  Solving for T, Initial residual = 0, Final residual = 0, No Iterations 0
diagonal:  Solving for T, Initial residual = 0, Final residual = 0, No Iterations 0
diagonal:  Solving for T, Initial residual = 0, Final residual = 0, No Iterations 0
 T goes from min(T) [0 0 0 0 0 0 0] -0.000197541 to max(T) [0 0 0 0 0 0 0] 0.90546

ExecutionTime = 13.65 s  ClockTime = 268 s

Time = 0.91
Courant Number mean: 0.347109 max: 0.656595
diagonal:  Solving for T, Initial residual = 0, Final residual = 0, No Iterations 0
diagonal:  Solving for T, Initial residual = 0, Final residual = 0, No Iterations 0
diagonal:  Solving for T, Initial residual = 0, Final residual = 0, No Iterations 0
diagonal:  Solving for T, Initial residual = 0, Final residual = 0, No Iterations 0
 T goes from min(T) [0 0 0 0 0 0 0] -0.000218432 to max(T) [0 0 0 0 0 0 0] 0.903658

ExecutionTime = 13.77 s  ClockTime = 271 s

Time = 0.92
Courant Number mean: 0.346565 max: 0.65487
diagonal:  Solving for T, Initial residual = 0, Final residual = 0, No Iterations 0
diagonal:  Solving for T, Initial residual = 0, Final residual = 0, No Iterations 0
diagonal:  Solving for T, Initial residual = 0, Final residual = 0, No Iterations 0
diagonal:  Solving for T, Initial residual = 0, Final residual = 0, No Iterations 0
 T goes from min(T) [0 0 0 0 0 0 0] -0.000255336 to max(T) [0 0 0 0 0 0 0] 0.903038

ExecutionTime = 13.9 s  ClockTime = 273 s

Time = 0.93
Courant Number mean: 0.34595 max: 0.6532
diagonal:  Solving for T, Initial residual = 0, Final residual = 0, No Iterations 0
diagonal:  Solving for T, Initial residual = 0, Final residual = 0, No Iterations 0
diagonal:  Solving for T, Initial residual = 0, Final residual = 0, No Iterations 0
diagonal:  Solving for T, Initial residual = 0, Final residual = 0, No Iterations 0
 T goes from min(T) [0 0 0 0 0 0 0] -0.000298389 to max(T) [0 0 0 0 0 0 0] 0.907733

ExecutionTime = 14.05 s  ClockTime = 276 s

Time = 0.94
Courant Number mean: 0.345337 max: 0.65143
diagonal:  Solving for T, Initial residual = 0, Final residual = 0, No Iterations 0
diagonal:  Solving for T, Initial residual = 0, Final residual = 0, No Iterations 0
diagonal:  Solving for T, Initial residual = 0, Final residual = 0, No Iterations 0
diagonal:  Solving for T, Initial residual = 0, Final residual = 0, No Iterations 0
 T goes from min(T) [0 0 0 0 0 0 0] -0.000341476 to max(T) [0 0 0 0 0 0 0] 0.911056

ExecutionTime = 14.18 s  ClockTime = 278 s

Time = 0.95
Courant Number mean: 0.344856 max: 0.649735
diagonal:  Solving for T, Initial residual = 0, Final residual = 0, No Iterations 0
diagonal:  Solving for T, Initial residual = 0, Final residual = 0, No Iterations 0
diagonal:  Solving for T, Initial residual = 0, Final residual = 0, No Iterations 0
diagonal:  Solving for T, Initial residual = 0, Final residual = 0, No Iterations 0
 T goes from min(T) [0 0 0 0 0 0 0] -0.000386387 to max(T) [0 0 0 0 0 0 0] 0.913204

ExecutionTime = 14.31 s  ClockTime = 281 s

Time = 0.96
Courant Number mean: 0.344308 max: 0.647915
diagonal:  Solving for T, Initial residual = 0, Final residual = 0, No Iterations 0
diagonal:  Solving for T, Initial residual = 0, Final residual = 0, No Iterations 0
diagonal:  Solving for T, Initial residual = 0, Final residual = 0, No Iterations 0
diagonal:  Solving for T, Initial residual = 0, Final residual = 0, No Iterations 0
 T goes from min(T) [0 0 0 0 0 0 0] -0.00041634 to max(T) [0 0 0 0 0 0 0] 0.91451

ExecutionTime = 14.43 s  ClockTime = 283 s

Time = 0.97
Courant Number mean: 0.343689 max: 0.646207
diagonal:  Solving for T, Initial residual = 0, Final residual = 0, No Iterations 0
diagonal:  Solving for T, Initial residual = 0, Final residual = 0, No Iterations 0
diagonal:  Solving for T, Initial residual = 0, Final residual = 0, No Iterations 0
diagonal:  Solving for T, Initial residual = 0, Final residual = 0, No Iterations 0
 T goes from min(T) [0 0 0 0 0 0 0] -0.000488979 to max(T) [0 0 0 0 0 0 0] 0.91485

ExecutionTime = 14.56 s  ClockTime = 285 s

Time = 0.98
Courant Number mean: 0.343028 max: 0.644344
diagonal:  Solving for T, Initial residual = 0, Final residual = 0, No Iterations 0
diagonal:  Solving for T, Initial residual = 0, Final residual = 0, No Iterations 0
diagonal:  Solving for T, Initial residual = 0, Final residual = 0, No Iterations 0
diagonal:  Solving for T, Initial residual = 0, Final residual = 0, No Iterations 0
 T goes from min(T) [0 0 0 0 0 0 0] -0.000567118 to max(T) [0 0 0 0 0 0 0] 0.914373

ExecutionTime = 14.67 s  ClockTime = 288 s

Time = 0.99
Courant Number mean: 0.342544 max: 0.642612
diagonal:  Solving for T, Initial residual = 0, Final residual = 0, No Iterations 0
diagonal:  Solving for T, Initial residual = 0, Final residual = 0, No Iterations 0
diagonal:  Solving for T, Initial residual = 0, Final residual = 0, No Iterations 0
diagonal:  Solving for T, Initial residual = 0, Final residual = 0, No Iterations 0
 T goes from min(T) [0 0 0 0 0 0 0] -0.000631122 to max(T) [0 0 0 0 0 0 0] 0.914208

ExecutionTime = 14.8 s  ClockTime = 290 s

Time = 1
Courant Number mean: 0.341991 max: 0.640698
diagonal:  Solving for T, Initial residual = 0, Final residual = 0, No Iterations 0
diagonal:  Solving for T, Initial residual = 0, Final residual = 0, No Iterations 0
diagonal:  Solving for T, Initial residual = 0, Final residual = 0, No Iterations 0
diagonal:  Solving for T, Initial residual = 0, Final residual = 0, No Iterations 0
 T goes from min(T) [0 0 0 0 0 0 0] -0.00071016 to max(T) [0 0 0 0 0 0 0] 0.913445

ExecutionTime = 14.92 s  ClockTime = 292 s

Time = 1.01
Courant Number mean: 0.341379 max: 0.638953
diagonal:  Solving for T, Initial residual = 0, Final residual = 0, No Iterations 0
diagonal:  Solving for T, Initial residual = 0, Final residual = 0, No Iterations 0
diagonal:  Solving for T, Initial residual = 0, Final residual = 0, No Iterations 0
diagonal:  Solving for T, Initial residual = 0, Final residual = 0, No Iterations 0
 T goes from min(T) [0 0 0 0 0 0 0] -0.000763455 to max(T) [0 0 0 0 0 0 0] 0.912591

ExecutionTime = 15.05 s  ClockTime = 295 s

Time = 1.02
Courant Number mean: 0.340702 max: 0.637027
diagonal:  Solving for T, Initial residual = 0, Final residual = 0, No Iterations 0
diagonal:  Solving for T, Initial residual = 0, Final residual = 0, No Iterations 0
diagonal:  Solving for T, Initial residual = 0, Final residual = 0, No Iterations 0
diagonal:  Solving for T, Initial residual = 0, Final residual = 0, No Iterations 0
 T goes from min(T) [0 0 0 0 0 0 0] -0.000880285 to max(T) [0 0 0 0 0 0 0] 0.912508

ExecutionTime = 15.18 s  ClockTime = 297 s

Time = 1.03
Courant Number mean: 0.340192 max: 0.63523
diagonal:  Solving for T, Initial residual = 0, Final residual = 0, No Iterations 0
diagonal:  Solving for T, Initial residual = 0, Final residual = 0, No Iterations 0
diagonal:  Solving for T, Initial residual = 0, Final residual = 0, No Iterations 0
diagonal:  Solving for T, Initial residual = 0, Final residual = 0, No Iterations 0
 T goes from min(T) [0 0 0 0 0 0 0] -0.00101107 to max(T) [0 0 0 0 0 0 0] 0.91213

ExecutionTime = 15.3 s  ClockTime = 299 s

Time = 1.04
Courant Number mean: 0.33964 max: 0.633282
diagonal:  Solving for T, Initial residual = 0, Final residual = 0, No Iterations 0
diagonal:  Solving for T, Initial residual = 0, Final residual = 0, No Iterations 0
diagonal:  Solving for T, Initial residual = 0, Final residual = 0, No Iterations 0
diagonal:  Solving for T, Initial residual = 0, Final residual = 0, No Iterations 0
 T goes from min(T) [0 0 0 0 0 0 0] -0.00110343 to max(T) [0 0 0 0 0 0 0] 0.911515

ExecutionTime = 15.43 s  ClockTime = 302 s

Time = 1.05
Courant Number mean: 0.339024 max: 0.631442
diagonal:  Solving for T, Initial residual = 0, Final residual = 0, No Iterations 0
diagonal:  Solving for T, Initial residual = 0, Final residual = 0, No Iterations 0
diagonal:  Solving for T, Initial residual = 0, Final residual = 0, No Iterations 0
diagonal:  Solving for T, Initial residual = 0, Final residual = 0, No Iterations 0
 T goes from min(T) [0 0 0 0 0 0 0] -0.00123258 to max(T) [0 0 0 0 0 0 0] 0.910721

ExecutionTime = 15.55 s  ClockTime = 304 s

Time = 1.06
Courant Number mean: 0.338344 max: 0.629482
diagonal:  Solving for T, Initial residual = 0, Final residual = 0, No Iterations 0
diagonal:  Solving for T, Initial residual = 0, Final residual = 0, No Iterations 0
diagonal:  Solving for T, Initial residual = 0, Final residual = 0, No Iterations 0
diagonal:  Solving for T, Initial residual = 0, Final residual = 0, No Iterations 0
 T goes from min(T) [0 0 0 0 0 0 0] -0.0013119 to max(T) [0 0 0 0 0 0 0] 0.909799

ExecutionTime = 15.68 s  ClockTime = 307 s

Time = 1.07
Courant Number mean: 0.33779 max: 0.627594
diagonal:  Solving for T, Initial residual = 0, Final residual = 0, No Iterations 0
diagonal:  Solving for T, Initial residual = 0, Final residual = 0, No Iterations 0
diagonal:  Solving for T, Initial residual = 0, Final residual = 0, No Iterations 0
diagonal:  Solving for T, Initial residual = 0, Final residual = 0, No Iterations 0
 T goes from min(T) [0 0 0 0 0 0 0] -0.00149518 to max(T) [0 0 0 0 0 0 0] 0.910457

ExecutionTime = 15.8 s  ClockTime = 309 s

Time = 1.08
Courant Number mean: 0.337235 max: 0.625612
diagonal:  Solving for T, Initial residual = 0, Final residual = 0, No Iterations 0
diagonal:  Solving for T, Initial residual = 0, Final residual = 0, No Iterations 0
diagonal:  Solving for T, Initial residual = 0, Final residual = 0, No Iterations 0
diagonal:  Solving for T, Initial residual = 0, Final residual = 0, No Iterations 0
 T goes from min(T) [0 0 0 0 0 0 0] -0.00169775 to max(T) [0 0 0 0 0 0 0] 0.909775

ExecutionTime = 15.93 s  ClockTime = 311 s

Time = 1.09
Courant Number mean: 0.336619 max: 0.62368
diagonal:  Solving for T, Initial residual = 0, Final residual = 0, No Iterations 0
diagonal:  Solving for T, Initial residual = 0, Final residual = 0, No Iterations 0
diagonal:  Solving for T, Initial residual = 0, Final residual = 0, No Iterations 0
diagonal:  Solving for T, Initial residual = 0, Final residual = 0, No Iterations 0
 T goes from min(T) [0 0 0 0 0 0 0] -0.00183901 to max(T) [0 0 0 0 0 0 0] 0.91023

ExecutionTime = 16.05 s  ClockTime = 314 s

Time = 1.1
Courant Number mean: 0.33594 max: 0.621687
diagonal:  Solving for T, Initial residual = 0, Final residual = 0, No Iterations 0
diagonal:  Solving for T, Initial residual = 0, Final residual = 0, No Iterations 0
diagonal:  Solving for T, Initial residual = 0, Final residual = 0, No Iterations 0
diagonal:  Solving for T, Initial residual = 0, Final residual = 0, No Iterations 0
 T goes from min(T) [0 0 0 0 0 0 0] -0.00202571 to max(T) [0 0 0 0 0 0 0] 0.910043

ExecutionTime = 16.18 s  ClockTime = 316 s

Time = 1.11
Courant Number mean: 0.335344 max: 0.619709
diagonal:  Solving for T, Initial residual = 0, Final residual = 0, No Iterations 0
diagonal:  Solving for T, Initial residual = 0, Final residual = 0, No Iterations 0
diagonal:  Solving for T, Initial residual = 0, Final residual = 0, No Iterations 0
diagonal:  Solving for T, Initial residual = 0, Final residual = 0, No Iterations 0
 T goes from min(T) [0 0 0 0 0 0 0] -0.0021478 to max(T) [0 0 0 0 0 0 0] 0.910115

ExecutionTime = 16.3 s  ClockTime = 318 s

Time = 1.12
Courant Number mean: 0.334792 max: 0.617693
diagonal:  Solving for T, Initial residual = 0, Final residual = 0, No Iterations 0
diagonal:  Solving for T, Initial residual = 0, Final residual = 0, No Iterations 0
diagonal:  Solving for T, Initial residual = 0, Final residual = 0, No Iterations 0
diagonal:  Solving for T, Initial residual = 0, Final residual = 0, No Iterations 0
 T goes from min(T) [0 0 0 0 0 0 0] -0.00240192 to max(T) [0 0 0 0 0 0 0] 0.910123

ExecutionTime = 16.43 s  ClockTime = 321 s

Time = 1.13
Courant Number mean: 0.334175 max: 0.615672
diagonal:  Solving for T, Initial residual = 0, Final residual = 0, No Iterations 0
diagonal:  Solving for T, Initial residual = 0, Final residual = 0, No Iterations 0
diagonal:  Solving for T, Initial residual = 0, Final residual = 0, No Iterations 0
diagonal:  Solving for T, Initial residual = 0, Final residual = 0, No Iterations 0
 T goes from min(T) [0 0 0 0 0 0 0] -0.00269329 to max(T) [0 0 0 0 0 0 0] 0.910055

ExecutionTime = 16.55 s  ClockTime = 323 s

Time = 1.14
Courant Number mean: 0.333503 max: 0.613645
diagonal:  Solving for T, Initial residual = 0, Final residual = 0, No Iterations 0
diagonal:  Solving for T, Initial residual = 0, Final residual = 0, No Iterations 0
diagonal:  Solving for T, Initial residual = 0, Final residual = 0, No Iterations 0
diagonal:  Solving for T, Initial residual = 0, Final residual = 0, No Iterations 0
 T goes from min(T) [0 0 0 0 0 0 0] -0.00290816 to max(T) [0 0 0 0 0 0 0] 0.909914

ExecutionTime = 16.68 s  ClockTime = 326 s

Time = 1.15
Courant Number mean: 0.332872 max: 0.61158
diagonal:  Solving for T, Initial residual = 0, Final residual = 0, No Iterations 0
diagonal:  Solving for T, Initial residual = 0, Final residual = 0, No Iterations 0
diagonal:  Solving for T, Initial residual = 0, Final residual = 0, No Iterations 0
diagonal:  Solving for T, Initial residual = 0, Final residual = 0, No Iterations 0
 T goes from min(T) [0 0 0 0 0 0 0] -0.00315951 to max(T) [0 0 0 0 0 0 0] 0.909694

ExecutionTime = 16.8 s  ClockTime = 328 s

Time = 1.16
Courant Number mean: 0.332324 max: 0.609531
diagonal:  Solving for T, Initial residual = 0, Final residual = 0, No Iterations 0
diagonal:  Solving for T, Initial residual = 0, Final residual = 0, No Iterations 0
diagonal:  Solving for T, Initial residual = 0, Final residual = 0, No Iterations 0
diagonal:  Solving for T, Initial residual = 0, Final residual = 0, No Iterations 0
 T goes from min(T) [0 0 0 0 0 0 0] -0.00333342 to max(T) [0 0 0 0 0 0 0] 0.909383

ExecutionTime = 16.92 s  ClockTime = 330 s

Time = 1.17
Courant Number mean: 0.331716 max: 0.607422
diagonal:  Solving for T, Initial residual = 0, Final residual = 0, No Iterations 0
diagonal:  Solving for T, Initial residual = 0, Final residual = 0, No Iterations 0
diagonal:  Solving for T, Initial residual = 0, Final residual = 0, No Iterations 0
diagonal:  Solving for T, Initial residual = 0, Final residual = 0, No Iterations 0
 T goes from min(T) [0 0 0 0 0 0 0] -0.00365864 to max(T) [0 0 0 0 0 0 0] 0.908964

ExecutionTime = 17.04 s  ClockTime = 333 s

Time = 1.18
Courant Number mean: 0.331049 max: 0.605362
diagonal:  Solving for T, Initial residual = 0, Final residual = 0, No Iterations 0
diagonal:  Solving for T, Initial residual = 0, Final residual = 0, No Iterations 0
diagonal:  Solving for T, Initial residual = 0, Final residual = 0, No Iterations 0
diagonal:  Solving for T, Initial residual = 0, Final residual = 0, No Iterations 0
 T goes from min(T) [0 0 0 0 0 0 0] -0.00404989 to max(T) [0 0 0 0 0 0 0] 0.908412

ExecutionTime = 17.17 s  ClockTime = 335 s

Time = 1.19
Courant Number mean: 0.330383 max: 0.603213
diagonal:  Solving for T, Initial residual = 0, Final residual = 0, No Iterations 0
diagonal:  Solving for T, Initial residual = 0, Final residual = 0, No Iterations 0
diagonal:  Solving for T, Initial residual = 0, Final residual = 0, No Iterations 0
diagonal:  Solving for T, Initial residual = 0, Final residual = 0, No Iterations 0
 T goes from min(T) [0 0 0 0 0 0 0] -0.00435325 to max(T) [0 0 0 0 0 0 0] 0.907698

ExecutionTime = 17.3 s  ClockTime = 337 s

Time = 1.2
Courant Number mean: 0.329838 max: 0.601131
diagonal:  Solving for T, Initial residual = 0, Final residual = 0, No Iterations 0
diagonal:  Solving for T, Initial residual = 0, Final residual = 0, No Iterations 0
diagonal:  Solving for T, Initial residual = 0, Final residual = 0, No Iterations 0
diagonal:  Solving for T, Initial residual = 0, Final residual = 0, No Iterations 0
 T goes from min(T) [0 0 0 0 0 0 0] -0.00468921 to max(T) [0 0 0 0 0 0 0] 0.907232

ExecutionTime = 17.45 s  ClockTime = 340 s

Time = 1.21
Courant Number mean: 0.329232 max: 0.598937
diagonal:  Solving for T, Initial residual = 0, Final residual = 0, No Iterations 0
diagonal:  Solving for T, Initial residual = 0, Final residual = 0, No Iterations 0
diagonal:  Solving for T, Initial residual = 0, Final residual = 0, No Iterations 0
diagonal:  Solving for T, Initial residual = 0, Final residual = 0, No Iterations 0
 T goes from min(T) [0 0 0 0 0 0 0] -0.00492113 to max(T) [0 0 0 0 0 0 0] 0.905631

ExecutionTime = 17.57 s  ClockTime = 343 s

Time = 1.22
Courant Number mean: 0.328574 max: 0.596844
diagonal:  Solving for T, Initial residual = 0, Final residual = 0, No Iterations 0
diagonal:  Solving for T, Initial residual = 0, Final residual = 0, No Iterations 0
diagonal:  Solving for T, Initial residual = 0, Final residual = 0, No Iterations 0
diagonal:  Solving for T, Initial residual = 0, Final residual = 0, No Iterations 0
 T goes from min(T) [0 0 0 0 0 0 0] -0.00530122 to max(T) [0 0 0 0 0 0 0] 0.907097

ExecutionTime = 17.7 s  ClockTime = 345 s

Time = 1.23
Courant Number mean: 0.327876 max: 0.594613
diagonal:  Solving for T, Initial residual = 0, Final residual = 0, No Iterations 0
diagonal:  Solving for T, Initial residual = 0, Final residual = 0, No Iterations 0
diagonal:  Solving for T, Initial residual = 0, Final residual = 0, No Iterations 0
diagonal:  Solving for T, Initial residual = 0, Final residual = 0, No Iterations 0
 T goes from min(T) [0 0 0 0 0 0 0] -0.00579558 to max(T) [0 0 0 0 0 0 0] 0.904606

ExecutionTime = 17.82 s  ClockTime = 347 s

Time = 1.24
Courant Number mean: 0.327335 max: 0.592498
diagonal:  Solving for T, Initial residual = 0, Final residual = 0, No Iterations 0
diagonal:  Solving for T, Initial residual = 0, Final residual = 0, No Iterations 0
diagonal:  Solving for T, Initial residual = 0, Final residual = 0, No Iterations 0
diagonal:  Solving for T, Initial residual = 0, Final residual = 0, No Iterations 0
 T goes from min(T) [0 0 0 0 0 0 0] -0.00619947 to max(T) [0 0 0 0 0 0 0] 0.906009

ExecutionTime = 17.95 s  ClockTime = 350 s

Time = 1.25
Courant Number mean: 0.326739 max: 0.590223
diagonal:  Solving for T, Initial residual = 0, Final residual = 0, No Iterations 0
diagonal:  Solving for T, Initial residual = 0, Final residual = 0, No Iterations 0
diagonal:  Solving for T, Initial residual = 0, Final residual = 0, No Iterations 0
diagonal:  Solving for T, Initial residual = 0, Final residual = 0, No Iterations 0
 T goes from min(T) [0 0 0 0 0 0 0] -0.00664457 to max(T) [0 0 0 0 0 0 0] 0.905584

ExecutionTime = 18.07 s  ClockTime = 352 s

Time = 1.26
Courant Number mean: 0.32609 max: 0.588096
diagonal:  Solving for T, Initial residual = 0, Final residual = 0, No Iterations 0
diagonal:  Solving for T, Initial residual = 0, Final residual = 0, No Iterations 0
diagonal:  Solving for T, Initial residual = 0, Final residual = 0, No Iterations 0
diagonal:  Solving for T, Initial residual = 0, Final residual = 0, No Iterations 0
 T goes from min(T) [0 0 0 0 0 0 0] -0.00693702 to max(T) [0 0 0 0 0 0 0] 0.905939

ExecutionTime = 18.2 s  ClockTime = 354 s

Time = 1.27
Courant Number mean: 0.32539 max: 0.585811
diagonal:  Solving for T, Initial residual = 0, Final residual = 0, No Iterations 0
diagonal:  Solving for T, Initial residual = 0, Final residual = 0, No Iterations 0
diagonal:  Solving for T, Initial residual = 0, Final residual = 0, No Iterations 0
diagonal:  Solving for T, Initial residual = 0, Final residual = 0, No Iterations 0
 T goes from min(T) [0 0 0 0 0 0 0] -0.00733646 to max(T) [0 0 0 0 0 0 0] 0.906125

ExecutionTime = 18.32 s  ClockTime = 357 s

Time = 1.28
Courant Number mean: 0.324838 max: 0.583638
diagonal:  Solving for T, Initial residual = 0, Final residual = 0, No Iterations 0
diagonal:  Solving for T, Initial residual = 0, Final residual = 0, No Iterations 0
diagonal:  Solving for T, Initial residual = 0, Final residual = 0, No Iterations 0
diagonal:  Solving for T, Initial residual = 0, Final residual = 0, No Iterations 0
 T goes from min(T) [0 0 0 0 0 0 0] -0.00793028 to max(T) [0 0 0 0 0 0 0] 0.906074

ExecutionTime = 18.44 s  ClockTime = 359 s

Time = 1.29
Courant Number mean: 0.324253 max: 0.581334
diagonal:  Solving for T, Initial residual = 0, Final residual = 0, No Iterations 0
diagonal:  Solving for T, Initial residual = 0, Final residual = 0, No Iterations 0
diagonal:  Solving for T, Initial residual = 0, Final residual = 0, No Iterations 0
diagonal:  Solving for T, Initial residual = 0, Final residual = 0, No Iterations 0
 T goes from min(T) [0 0 0 0 0 0 0] -0.00844454 to max(T) [0 0 0 0 0 0 0] 0.905709

ExecutionTime = 18.57 s  ClockTime = 361 s

Time = 1.3
Courant Number mean: 0.323613 max: 0.579124
diagonal:  Solving for T, Initial residual = 0, Final residual = 0, No Iterations 0
diagonal:  Solving for T, Initial residual = 0, Final residual = 0, No Iterations 0
diagonal:  Solving for T, Initial residual = 0, Final residual = 0, No Iterations 0
diagonal:  Solving for T, Initial residual = 0, Final residual = 0, No Iterations 0
 T goes from min(T) [0 0 0 0 0 0 0] -0.00902464 to max(T) [0 0 0 0 0 0 0] 0.904947

ExecutionTime = 18.69 s  ClockTime = 364 s

Time = 1.31
Courant Number mean: 0.322924 max: 0.57681
diagonal:  Solving for T, Initial residual = 0, Final residual = 0, No Iterations 0
diagonal:  Solving for T, Initial residual = 0, Final residual = 0, No Iterations 0
diagonal:  Solving for T, Initial residual = 0, Final residual = 0, No Iterations 0
diagonal:  Solving for T, Initial residual = 0, Final residual = 0, No Iterations 0
 T goes from min(T) [0 0 0 0 0 0 0] -0.00937606 to max(T) [0 0 0 0 0 0 0] 0.903699

ExecutionTime = 18.82 s  ClockTime = 366 s

Time = 1.32
Courant Number mean: 0.322345 max: 0.574558
diagonal:  Solving for T, Initial residual = 0, Final residual = 0, No Iterations 0
diagonal:  Solving for T, Initial residual = 0, Final residual = 0, No Iterations 0
diagonal:  Solving for T, Initial residual = 0, Final residual = 0, No Iterations 0
diagonal:  Solving for T, Initial residual = 0, Final residual = 0, No Iterations 0
 T goes from min(T) [0 0 0 0 0 0 0] -0.00974304 to max(T) [0 0 0 0 0 0 0] 0.901869

ExecutionTime = 18.95 s  ClockTime = 369 s

Time = 1.33
Courant Number mean: 0.321773 max: 0.572225
diagonal:  Solving for T, Initial residual = 0, Final residual = 0, No Iterations 0
diagonal:  Solving for T, Initial residual = 0, Final residual = 0, No Iterations 0
diagonal:  Solving for T, Initial residual = 0, Final residual = 0, No Iterations 0
diagonal:  Solving for T, Initial residual = 0, Final residual = 0, No Iterations 0
 T goes from min(T) [0 0 0 0 0 0 0] -0.0104294 to max(T) [0 0 0 0 0 0 0] 0.901374

ExecutionTime = 19.08 s  ClockTime = 371 s

Time = 1.34
Courant Number mean: 0.32115 max: 0.569935
diagonal:  Solving for T, Initial residual = 0, Final residual = 0, No Iterations 0
diagonal:  Solving for T, Initial residual = 0, Final residual = 0, No Iterations 0
diagonal:  Solving for T, Initial residual = 0, Final residual = 0, No Iterations 0
diagonal:  Solving for T, Initial residual = 0, Final residual = 0, No Iterations 0
 T goes from min(T) [0 0 0 0 0 0 0] -0.0120842 to max(T) [0 0 0 0 0 0 0] 0.899941

ExecutionTime = 19.21 s  ClockTime = 373 s

Time = 1.35
Courant Number mean: 0.320476 max: 0.567592
diagonal:  Solving for T, Initial residual = 0, Final residual = 0, No Iterations 0
diagonal:  Solving for T, Initial residual = 0, Final residual = 0, No Iterations 0
diagonal:  Solving for T, Initial residual = 0, Final residual = 0, No Iterations 0
diagonal:  Solving for T, Initial residual = 0, Final residual = 0, No Iterations 0
 T goes from min(T) [0 0 0 0 0 0 0] -0.011855 to max(T) [0 0 0 0 0 0 0] 0.898468

ExecutionTime = 19.33 s  ClockTime = 375 s

Time = 1.36
Courant Number mean: 0.319878 max: 0.565263
diagonal:  Solving for T, Initial residual = 0, Final residual = 0, No Iterations 0
diagonal:  Solving for T, Initial residual = 0, Final residual = 0, No Iterations 0
diagonal:  Solving for T, Initial residual = 0, Final residual = 0, No Iterations 0
diagonal:  Solving for T, Initial residual = 0, Final residual = 0, No Iterations 0
 T goes from min(T) [0 0 0 0 0 0 0] -0.013025 to max(T) [0 0 0 0 0 0 0] 0.899514

ExecutionTime = 19.44 s  ClockTime = 377 s

Time = 1.37
Courant Number mean: 0.319318 max: 0.562901
diagonal:  Solving for T, Initial residual = 0, Final residual = 0, No Iterations 0
diagonal:  Solving for T, Initial residual = 0, Final residual = 0, No Iterations 0
diagonal:  Solving for T, Initial residual = 0, Final residual = 0, No Iterations 0
diagonal:  Solving for T, Initial residual = 0, Final residual = 0, No Iterations 0
 T goes from min(T) [0 0 0 0 0 0 0] -0.0154287 to max(T) [0 0 0 0 0 0 0] 0.90017

ExecutionTime = 19.56 s  ClockTime = 379 s

Time = 1.38
Courant Number mean: 0.318712 max: 0.560534
diagonal:  Solving for T, Initial residual = 0, Final residual = 0, No Iterations 0
diagonal:  Solving for T, Initial residual = 0, Final residual = 0, No Iterations 0
diagonal:  Solving for T, Initial residual = 0, Final residual = 0, No Iterations 0
diagonal:  Solving for T, Initial residual = 0, Final residual = 0, No Iterations 0
 T goes from min(T) [0 0 0 0 0 0 0] -0.0150584 to max(T) [0 0 0 0 0 0 0] 0.90017

ExecutionTime = 19.68 s  ClockTime = 381 s

Time = 1.39
Courant Number mean: 0.318058 max: 0.558162
diagonal:  Solving for T, Initial residual = 0, Final residual = 0, No Iterations 0
diagonal:  Solving for T, Initial residual = 0, Final residual = 0, No Iterations 0
diagonal:  Solving for T, Initial residual = 0, Final residual = 0, No Iterations 0
diagonal:  Solving for T, Initial residual = 0, Final residual = 0, No Iterations 0
 T goes from min(T) [0 0 0 0 0 0 0] -0.0161205 to max(T) [0 0 0 0 0 0 0] 0.899387

ExecutionTime = 19.79 s  ClockTime = 383 s

Time = 1.4
Courant Number mean: 0.317444 max: 0.555759
diagonal:  Solving for T, Initial residual = 0, Final residual = 0, No Iterations 0
diagonal:  Solving for T, Initial residual = 0, Final residual = 0, No Iterations 0
diagonal:  Solving for T, Initial residual = 0, Final residual = 0, No Iterations 0
diagonal:  Solving for T, Initial residual = 0, Final residual = 0, No Iterations 0
 T goes from min(T) [0 0 0 0 0 0 0] -0.0188167 to max(T) [0 0 0 0 0 0 0] 0.898075

ExecutionTime = 19.96 s  ClockTime = 386 s

Time = 1.41
Courant Number mean: 0.316903 max: 0.553368
diagonal:  Solving for T, Initial residual = 0, Final residual = 0, No Iterations 0
diagonal:  Solving for T, Initial residual = 0, Final residual = 0, No Iterations 0
diagonal:  Solving for T, Initial residual = 0, Final residual = 0, No Iterations 0
diagonal:  Solving for T, Initial residual = 0, Final residual = 0, No Iterations 0
 T goes from min(T) [0 0 0 0 0 0 0] -0.0184518 to max(T) [0 0 0 0 0 0 0] 0.896826

ExecutionTime = 20.1 s  ClockTime = 389 s

Time = 1.42
Courant Number mean: 0.316315 max: 0.550927
diagonal:  Solving for T, Initial residual = 0, Final residual = 0, No Iterations 0
diagonal:  Solving for T, Initial residual = 0, Final residual = 0, No Iterations 0
diagonal:  Solving for T, Initial residual = 0, Final residual = 0, No Iterations 0
diagonal:  Solving for T, Initial residual = 0, Final residual = 0, No Iterations 0
 T goes from min(T) [0 0 0 0 0 0 0] -0.0188235 to max(T) [0 0 0 0 0 0 0] 0.89347

ExecutionTime = 20.22 s  ClockTime = 391 s

Time = 1.43
Courant Number mean: 0.315679 max: 0.548527
diagonal:  Solving for T, Initial residual = 0, Final residual = 0, No Iterations 0
diagonal:  Solving for T, Initial residual = 0, Final residual = 0, No Iterations 0
diagonal:  Solving for T, Initial residual = 0, Final residual = 0, No Iterations 0
diagonal:  Solving for T, Initial residual = 0, Final residual = 0, No Iterations 0
 T goes from min(T) [0 0 0 0 0 0 0] -0.0223141 to max(T) [0 0 0 0 0 0 0] 0.892415

ExecutionTime = 20.34 s  ClockTime = 393 s

Time = 1.44
Courant Number mean: 0.315043 max: 0.546052
diagonal:  Solving for T, Initial residual = 0, Final residual = 0, No Iterations 0
diagonal:  Solving for T, Initial residual = 0, Final residual = 0, No Iterations 0
diagonal:  Solving for T, Initial residual = 0, Final residual = 0, No Iterations 0
diagonal:  Solving for T, Initial residual = 0, Final residual = 0, No Iterations 0
 T goes from min(T) [0 0 0 0 0 0 0] -0.0219696 to max(T) [0 0 0 0 0 0 0] 0.892827

ExecutionTime = 20.46 s  ClockTime = 395 s

Time = 1.45
Courant Number mean: 0.314504 max: 0.543634
diagonal:  Solving for T, Initial residual = 0, Final residual = 0, No Iterations 0
diagonal:  Solving for T, Initial residual = 0, Final residual = 0, No Iterations 0
diagonal:  Solving for T, Initial residual = 0, Final residual = 0, No Iterations 0
diagonal:  Solving for T, Initial residual = 0, Final residual = 0, No Iterations 0
 T goes from min(T) [0 0 0 0 0 0 0] -0.0208874 to max(T) [0 0 0 0 0 0 0] 0.893931

ExecutionTime = 20.57 s  ClockTime = 396 s

Time = 1.46
Courant Number mean: 0.313915 max: 0.541122
diagonal:  Solving for T, Initial residual = 0, Final residual = 0, No Iterations 0
diagonal:  Solving for T, Initial residual = 0, Final residual = 0, No Iterations 0
diagonal:  Solving for T, Initial residual = 0, Final residual = 0, No Iterations 0
diagonal:  Solving for T, Initial residual = 0, Final residual = 0, No Iterations 0
 T goes from min(T) [0 0 0 0 0 0 0] -0.0257084 to max(T) [0 0 0 0 0 0 0] 0.893952

ExecutionTime = 20.69 s  ClockTime = 399 s

Time = 1.47
Courant Number mean: 0.313276 max: 0.538693
diagonal:  Solving for T, Initial residual = 0, Final residual = 0, No Iterations 0
diagonal:  Solving for T, Initial residual = 0, Final residual = 0, No Iterations 0
diagonal:  Solving for T, Initial residual = 0, Final residual = 0, No Iterations 0
diagonal:  Solving for T, Initial residual = 0, Final residual = 0, No Iterations 0
 T goes from min(T) [0 0 0 0 0 0 0] -0.025477 to max(T) [0 0 0 0 0 0 0] 0.893506

ExecutionTime = 20.81 s  ClockTime = 401 s

Time = 1.48
Courant Number mean: 0.312605 max: 0.53615
diagonal:  Solving for T, Initial residual = 0, Final residual = 0, No Iterations 0
diagonal:  Solving for T, Initial residual = 0, Final residual = 0, No Iterations 0
diagonal:  Solving for T, Initial residual = 0, Final residual = 0, No Iterations 0
diagonal:  Solving for T, Initial residual = 0, Final residual = 0, No Iterations 0
 T goes from min(T) [0 0 0 0 0 0 0] -0.0244493 to max(T) [0 0 0 0 0 0 0] 0.891221

ExecutionTime = 20.93 s  ClockTime = 403 s

Time = 1.49
Courant Number mean: 0.31206 max: 0.533704
diagonal:  Solving for T, Initial residual = 0, Final residual = 0, No Iterations 0
diagonal:  Solving for T, Initial residual = 0, Final residual = 0, No Iterations 0
diagonal:  Solving for T, Initial residual = 0, Final residual = 0, No Iterations 0
diagonal:  Solving for T, Initial residual = 0, Final residual = 0, No Iterations 0
 T goes from min(T) [0 0 0 0 0 0 0] -0.0287224 to max(T) [0 0 0 0 0 0 0] 0.886294

ExecutionTime = 21.05 s  ClockTime = 405 s

Time = 1.5
Courant Number mean: 0.311466 max: 0.531124
diagonal:  Solving for T, Initial residual = 0, Final residual = 0, No Iterations 0
diagonal:  Solving for T, Initial residual = 0, Final residual = 0, No Iterations 0
diagonal:  Solving for T, Initial residual = 0, Final residual = 0, No Iterations 0
diagonal:  Solving for T, Initial residual = 0, Final residual = 0, No Iterations 0
 T goes from min(T) [0 0 0 0 0 0 0] -0.0291869 to max(T) [0 0 0 0 0 0 0] 0.886933

ExecutionTime = 21.17 s  ClockTime = 407 s

Time = 1.51
Courant Number mean: 0.310824 max: 0.528667
diagonal:  Solving for T, Initial residual = 0, Final residual = 0, No Iterations 0
diagonal:  Solving for T, Initial residual = 0, Final residual = 0, No Iterations 0
diagonal:  Solving for T, Initial residual = 0, Final residual = 0, No Iterations 0
diagonal:  Solving for T, Initial residual = 0, Final residual = 0, No Iterations 0
 T goes from min(T) [0 0 0 0 0 0 0] -0.0279188 to max(T) [0 0 0 0 0 0 0] 0.885863

ExecutionTime = 21.3 s  ClockTime = 409 s

Time = 1.52
Courant Number mean: 0.310136 max: 0.52608
diagonal:  Solving for T, Initial residual = 0, Final residual = 0, No Iterations 0
diagonal:  Solving for T, Initial residual = 0, Final residual = 0, No Iterations 0
[...]
diagonal:  Solving for T, Initial residual = 0, Final residual = 0, No Iterations 0
diagonal:  Solving for T, Initial residual = 0, Final residual = 0, No Iterations 0
 T goes from min(T) [0 0 0 0 0 0 0] -0.108936 to max(T) [0 0 0 0 0 0 0] 0.752219

ExecutionTime = 74.13 s  ClockTime = 1217 s

Time = 5.63
Courant Number mean: 0.360843 max: 0.697067
diagonal:  Solving for T, Initial residual = 0, Final residual = 0, No Iterations 0
diagonal:  Solving for T, Initial residual = 0, Final residual = 0, No Iterations 0
diagonal:  Solving for T, Initial residual = 0, Final residual = 0, No Iterations 0
diagonal:  Solving for T, Initial residual = 0, Final residual = 0, No Iterations 0
 T goes from min(T) [0 0 0 0 0 0 0] -0.109459 to max(T) [0 0 0 0 0 0 0] 0.752431

ExecutionTime = 74.26 s  ClockTime = 1218 s

Time = 5.64
Courant Number mean: 0.360345 max: 0.695869
diagonal:  Solving for T, Initial residual = 0, Final residual = 0, No Iterations 0
diagonal:  Solving for T, Initial residual = 0, Final residual = 0, No Iterations 0
diagonal:  Solving for T, Initial residual = 0, Final residual = 0, No Iterations 0
diagonal:  Solving for T, Initial residual = 0, Final residual = 0, No Iterations 0
 T goes from min(T) [0 0 0 0 0 0 0] -0.108564 to max(T) [0 0 0 0 0 0 0] 0.75199

ExecutionTime = 74.38 s  ClockTime = 1220 s

Time = 5.65
Courant Number mean: 0.359898 max: 0.694625
diagonal:  Solving for T, Initial residual = 0, Final residual = 0, No Iterations 0
diagonal:  Solving for T, Initial residual = 0, Final residual = 0, No Iterations 0
diagonal:  Solving for T, Initial residual = 0, Final residual = 0, No Iterations 0
diagonal:  Solving for T, Initial residual = 0, Final residual = 0, No Iterations 0
 T goes from min(T) [0 0 0 0 0 0 0] -0.108691 to max(T) [0 0 0 0 0 0 0] 0.750863

ExecutionTime = 74.52 s  ClockTime = 1222 s

Time = 5.66
Courant Number mean: 0.359551 max: 0.6934
diagonal:  Solving for T, Initial residual = 0, Final residual = 0, No Iterations 0
diagonal:  Solving for T, Initial residual = 0, Final residual = 0, No Iterations 0
diagonal:  Solving for T, Initial residual = 0, Final residual = 0, No Iterations 0
diagonal:  Solving for T, Initial residual = 0, Final residual = 0, No Iterations 0
 T goes from min(T) [0 0 0 0 0 0 0] -0.108989 to max(T) [0 0 0 0 0 0 0] 0.749575

ExecutionTime = 74.65 s  ClockTime = 1223 s

Time = 5.67
Courant Number mean: 0.359125 max: 0.692102
diagonal:  Solving for T, Initial residual = 0, Final residual = 0, No Iterations 0
diagonal:  Solving for T, Initial residual = 0, Final residual = 0, No Iterations 0
diagonal:  Solving for T, Initial residual = 0, Final residual = 0, No Iterations 0
diagonal:  Solving for T, Initial residual = 0, Final residual = 0, No Iterations 0
 T goes from min(T) [0 0 0 0 0 0 0] -0.107758 to max(T) [0 0 0 0 0 0 0] 0.750078

ExecutionTime = 74.78 s  ClockTime = 1225 s

Time = 5.68
Courant Number mean: 0.35862 max: 0.690864
diagonal:  Solving for T, Initial residual = 0, Final residual = 0, No Iterations 0
diagonal:  Solving for T, Initial residual = 0, Final residual = 0, No Iterations 0
diagonal:  Solving for T, Initial residual = 0, Final residual = 0, No Iterations 0
diagonal:  Solving for T, Initial residual = 0, Final residual = 0, No Iterations 0
 T goes from min(T) [0 0 0 0 0 0 0] -0.108 to max(T) [0 0 0 0 0 0 0] 0.750012

ExecutionTime = 74.91 s  ClockTime = 1227 s

Time = 5.69
Courant Number mean: 0.358117 max: 0.689516
diagonal:  Solving for T, Initial residual = 0, Final residual = 0, No Iterations 0
diagonal:  Solving for T, Initial residual = 0, Final residual = 0, No Iterations 0
diagonal:  Solving for T, Initial residual = 0, Final residual = 0, No Iterations 0
diagonal:  Solving for T, Initial residual = 0, Final residual = 0, No Iterations 0
 T goes from min(T) [0 0 0 0 0 0 0] -0.108677 to max(T) [0 0 0 0 0 0 0] 0.749353

ExecutionTime = 75.04 s  ClockTime = 1228 s

Time = 5.7
Courant Number mean: 0.357753 max: 0.688251
diagonal:  Solving for T, Initial residual = 0, Final residual = 0, No Iterations 0
diagonal:  Solving for T, Initial residual = 0, Final residual = 0, No Iterations 0
diagonal:  Solving for T, Initial residual = 0, Final residual = 0, No Iterations 0
diagonal:  Solving for T, Initial residual = 0, Final residual = 0, No Iterations 0
 T goes from min(T) [0 0 0 0 0 0 0] -0.107715 to max(T) [0 0 0 0 0 0 0] 0.748073

ExecutionTime = 75.17 s  ClockTime = 1230 s

Time = 5.71
Courant Number mean: 0.357313 max: 0.686848
diagonal:  Solving for T, Initial residual = 0, Final residual = 0, No Iterations 0
diagonal:  Solving for T, Initial residual = 0, Final residual = 0, No Iterations 0
diagonal:  Solving for T, Initial residual = 0, Final residual = 0, No Iterations 0
diagonal:  Solving for T, Initial residual = 0, Final residual = 0, No Iterations 0
 T goes from min(T) [0 0 0 0 0 0 0] -0.106794 to max(T) [0 0 0 0 0 0 0] 0.746148

ExecutionTime = 75.3 s  ClockTime = 1232 s

Time = 5.72
Courant Number mean: 0.356808 max: 0.685568
diagonal:  Solving for T, Initial residual = 0, Final residual = 0, No Iterations 0
diagonal:  Solving for T, Initial residual = 0, Final residual = 0, No Iterations 0
diagonal:  Solving for T, Initial residual = 0, Final residual = 0, No Iterations 0
diagonal:  Solving for T, Initial residual = 0, Final residual = 0, No Iterations 0
 T goes from min(T) [0 0 0 0 0 0 0] -0.107928 to max(T) [0 0 0 0 0 0 0] 0.746297

ExecutionTime = 75.44 s  ClockTime = 1233 s

Time = 5.73
Courant Number mean: 0.356249 max: 0.684118
diagonal:  Solving for T, Initial residual = 0, Final residual = 0, No Iterations 0
diagonal:  Solving for T, Initial residual = 0, Final residual = 0, No Iterations 0
diagonal:  Solving for T, Initial residual = 0, Final residual = 0, No Iterations 0
diagonal:  Solving for T, Initial residual = 0, Final residual = 0, No Iterations 0
 T goes from min(T) [0 0 0 0 0 0 0] -0.107435 to max(T) [0 0 0 0 0 0 0] 0.746088

ExecutionTime = 75.57 s  ClockTime = 1235 s

Time = 5.74
Courant Number mean: 0.355874 max: 0.682813
diagonal:  Solving for T, Initial residual = 0, Final residual = 0, No Iterations 0
diagonal:  Solving for T, Initial residual = 0, Final residual = 0, No Iterations 0
diagonal:  Solving for T, Initial residual = 0, Final residual = 0, No Iterations 0
diagonal:  Solving for T, Initial residual = 0, Final residual = 0, No Iterations 0
 T goes from min(T) [0 0 0 0 0 0 0] -0.10528 to max(T) [0 0 0 0 0 0 0] 0.746227

ExecutionTime = 75.7 s  ClockTime = 1237 s

Time = 5.75
Courant Number mean: 0.355424 max: 0.681306
diagonal:  Solving for T, Initial residual = 0, Final residual = 0, No Iterations 0
diagonal:  Solving for T, Initial residual = 0, Final residual = 0, No Iterations 0
diagonal:  Solving for T, Initial residual = 0, Final residual = 0, No Iterations 0
diagonal:  Solving for T, Initial residual = 0, Final residual = 0, No Iterations 0
 T goes from min(T) [0 0 0 0 0 0 0] -0.106704 to max(T) [0 0 0 0 0 0 0] 0.746669

ExecutionTime = 75.83 s  ClockTime = 1239 s

Time = 5.76
Courant Number mean: 0.354909 max: 0.679987
diagonal:  Solving for T, Initial residual = 0, Final residual = 0, No Iterations 0
diagonal:  Solving for T, Initial residual = 0, Final residual = 0, No Iterations 0
diagonal:  Solving for T, Initial residual = 0, Final residual = 0, No Iterations 0
diagonal:  Solving for T, Initial residual = 0, Final residual = 0, No Iterations 0
 T goes from min(T) [0 0 0 0 0 0 0] -0.106817 to max(T) [0 0 0 0 0 0 0] 0.746665

ExecutionTime = 75.96 s  ClockTime = 1240 s

Time = 5.77
Courant Number mean: 0.354322 max: 0.678467
diagonal:  Solving for T, Initial residual = 0, Final residual = 0, No Iterations 0
diagonal:  Solving for T, Initial residual = 0, Final residual = 0, No Iterations 0
diagonal:  Solving for T, Initial residual = 0, Final residual = 0, No Iterations 0
diagonal:  Solving for T, Initial residual = 0, Final residual = 0, No Iterations 0
 T goes from min(T) [0 0 0 0 0 0 0] -0.105825 to max(T) [0 0 0 0 0 0 0] 0.746199

ExecutionTime = 76.09 s  ClockTime = 1242 s

Time = 5.78
Courant Number mean: 0.353916 max: 0.67709
diagonal:  Solving for T, Initial residual = 0, Final residual = 0, No Iterations 0
diagonal:  Solving for T, Initial residual = 0, Final residual = 0, No Iterations 0
diagonal:  Solving for T, Initial residual = 0, Final residual = 0, No Iterations 0
diagonal:  Solving for T, Initial residual = 0, Final residual = 0, No Iterations 0
 T goes from min(T) [0 0 0 0 0 0 0] -0.104969 to max(T) [0 0 0 0 0 0 0] 0.745252

ExecutionTime = 76.22 s  ClockTime = 1244 s

Time = 5.79
Courant Number mean: 0.353469 max: 0.675546
diagonal:  Solving for T, Initial residual = 0, Final residual = 0, No Iterations 0
diagonal:  Solving for T, Initial residual = 0, Final residual = 0, No Iterations 0
diagonal:  Solving for T, Initial residual = 0, Final residual = 0, No Iterations 0
diagonal:  Solving for T, Initial residual = 0, Final residual = 0, No Iterations 0
 T goes from min(T) [0 0 0 0 0 0 0] -0.106144 to max(T) [0 0 0 0 0 0 0] 0.743805

ExecutionTime = 76.35 s  ClockTime = 1245 s

Time = 5.8
Courant Number mean: 0.352941 max: 0.674122
diagonal:  Solving for T, Initial residual = 0, Final residual = 0, No Iterations 0
diagonal:  Solving for T, Initial residual = 0, Final residual = 0, No Iterations 0
diagonal:  Solving for T, Initial residual = 0, Final residual = 0, No Iterations 0
diagonal:  Solving for T, Initial residual = 0, Final residual = 0, No Iterations 0
 T goes from min(T) [0 0 0 0 0 0 0] -0.105864 to max(T) [0 0 0 0 0 0 0] 0.742197

ExecutionTime = 76.5 s  ClockTime = 1247 s

Time = 5.81
Courant Number mean: 0.352338 max: 0.672564
diagonal:  Solving for T, Initial residual = 0, Final residual = 0, No Iterations 0
diagonal:  Solving for T, Initial residual = 0, Final residual = 0, No Iterations 0
diagonal:  Solving for T, Initial residual = 0, Final residual = 0, No Iterations 0
diagonal:  Solving for T, Initial residual = 0, Final residual = 0, No Iterations 0
 T goes from min(T) [0 0 0 0 0 0 0] -0.104395 to max(T) [0 0 0 0 0 0 0] 0.74193

ExecutionTime = 76.62 s  ClockTime = 1249 s

Time = 5.82
Courant Number mean: 0.351882 max: 0.671086
diagonal:  Solving for T, Initial residual = 0, Final residual = 0, No Iterations 0
diagonal:  Solving for T, Initial residual = 0, Final residual = 0, No Iterations 0
diagonal:  Solving for T, Initial residual = 0, Final residual = 0, No Iterations 0
diagonal:  Solving for T, Initial residual = 0, Final residual = 0, No Iterations 0
 T goes from min(T) [0 0 0 0 0 0 0] -0.104817 to max(T) [0 0 0 0 0 0 0] 0.741311

ExecutionTime = 76.75 s  ClockTime = 1251 s

Time = 5.83
Courant Number mean: 0.351423 max: 0.669504
diagonal:  Solving for T, Initial residual = 0, Final residual = 0, No Iterations 0
diagonal:  Solving for T, Initial residual = 0, Final residual = 0, No Iterations 0
diagonal:  Solving for T, Initial residual = 0, Final residual = 0, No Iterations 0
diagonal:  Solving for T, Initial residual = 0, Final residual = 0, No Iterations 0
 T goes from min(T) [0 0 0 0 0 0 0] -0.105323 to max(T) [0 0 0 0 0 0 0] 0.741634

ExecutionTime = 76.88 s  ClockTime = 1252 s

Time = 5.84
Courant Number mean: 0.350889 max: 0.667978
diagonal:  Solving for T, Initial residual = 0, Final residual = 0, No Iterations 0
diagonal:  Solving for T, Initial residual = 0, Final residual = 0, No Iterations 0
diagonal:  Solving for T, Initial residual = 0, Final residual = 0, No Iterations 0
diagonal:  Solving for T, Initial residual = 0, Final residual = 0, No Iterations 0
 T goes from min(T) [0 0 0 0 0 0 0] -0.104541 to max(T) [0 0 0 0 0 0 0] 0.742254

ExecutionTime = 77 s  ClockTime = 1254 s

Time = 5.85
Courant Number mean: 0.350284 max: 0.666383
diagonal:  Solving for T, Initial residual = 0, Final residual = 0, No Iterations 0
diagonal:  Solving for T, Initial residual = 0, Final residual = 0, No Iterations 0
diagonal:  Solving for T, Initial residual = 0, Final residual = 0, No Iterations 0
diagonal:  Solving for T, Initial residual = 0, Final residual = 0, No Iterations 0
 T goes from min(T) [0 0 0 0 0 0 0] -0.103158 to max(T) [0 0 0 0 0 0 0] 0.741441

ExecutionTime = 77.14 s  ClockTime = 1255 s

Time = 5.86
Courant Number mean: 0.349772 max: 0.664806
diagonal:  Solving for T, Initial residual = 0, Final residual = 0, No Iterations 0
diagonal:  Solving for T, Initial residual = 0, Final residual = 0, No Iterations 0
diagonal:  Solving for T, Initial residual = 0, Final residual = 0, No Iterations 0
diagonal:  Solving for T, Initial residual = 0, Final residual = 0, No Iterations 0
 T goes from min(T) [0 0 0 0 0 0 0] -0.104134 to max(T) [0 0 0 0 0 0 0] 0.741414

ExecutionTime = 77.26 s  ClockTime = 1257 s

Time = 5.87
Courant Number mean: 0.3493 max: 0.663186
diagonal:  Solving for T, Initial residual = 0, Final residual = 0, No Iterations 0
diagonal:  Solving for T, Initial residual = 0, Final residual = 0, No Iterations 0
diagonal:  Solving for T, Initial residual = 0, Final residual = 0, No Iterations 0
diagonal:  Solving for T, Initial residual = 0, Final residual = 0, No Iterations 0
 T goes from min(T) [0 0 0 0 0 0 0] -0.103917 to max(T) [0 0 0 0 0 0 0] 0.741007

ExecutionTime = 77.39 s  ClockTime = 1258 s

Time = 5.88
Courant Number mean: 0.34876 max: 0.661559
diagonal:  Solving for T, Initial residual = 0, Final residual = 0, No Iterations 0
diagonal:  Solving for T, Initial residual = 0, Final residual = 0, No Iterations 0
diagonal:  Solving for T, Initial residual = 0, Final residual = 0, No Iterations 0
diagonal:  Solving for T, Initial residual = 0, Final residual = 0, No Iterations 0
 T goes from min(T) [0 0 0 0 0 0 0] -0.103506 to max(T) [0 0 0 0 0 0 0] 0.740561

ExecutionTime = 77.52 s  ClockTime = 1260 s

Time = 5.89
Courant Number mean: 0.348155 max: 0.659927
diagonal:  Solving for T, Initial residual = 0, Final residual = 0, No Iterations 0
diagonal:  Solving for T, Initial residual = 0, Final residual = 0, No Iterations 0
diagonal:  Solving for T, Initial residual = 0, Final residual = 0, No Iterations 0
diagonal:  Solving for T, Initial residual = 0, Final residual = 0, No Iterations 0
 T goes from min(T) [0 0 0 0 0 0 0] -0.102506 to max(T) [0 0 0 0 0 0 0] 0.739807

ExecutionTime = 77.65 s  ClockTime = 1262 s

Time = 5.9
Courant Number mean: 0.34759 max: 0.658252
diagonal:  Solving for T, Initial residual = 0, Final residual = 0, No Iterations 0
diagonal:  Solving for T, Initial residual = 0, Final residual = 0, No Iterations 0
diagonal:  Solving for T, Initial residual = 0, Final residual = 0, No Iterations 0
diagonal:  Solving for T, Initial residual = 0, Final residual = 0, No Iterations 0
 T goes from min(T) [0 0 0 0 0 0 0] -0.102694 to max(T) [0 0 0 0 0 0 0] 0.738735

ExecutionTime = 77.78 s  ClockTime = 1263 s

Time = 5.91
Courant Number mean: 0.347109 max: 0.656595
diagonal:  Solving for T, Initial residual = 0, Final residual = 0, No Iterations 0
diagonal:  Solving for T, Initial residual = 0, Final residual = 0, No Iterations 0
diagonal:  Solving for T, Initial residual = 0, Final residual = 0, No Iterations 0
diagonal:  Solving for T, Initial residual = 0, Final residual = 0, No Iterations 0
 T goes from min(T) [0 0 0 0 0 0 0] -0.103074 to max(T) [0 0 0 0 0 0 0] 0.737332

ExecutionTime = 77.91 s  ClockTime = 1265 s

Time = 5.92
Courant Number mean: 0.346565 max: 0.65487
diagonal:  Solving for T, Initial residual = 0, Final residual = 0, No Iterations 0
diagonal:  Solving for T, Initial residual = 0, Final residual = 0, No Iterations 0
diagonal:  Solving for T, Initial residual = 0, Final residual = 0, No Iterations 0
diagonal:  Solving for T, Initial residual = 0, Final residual = 0, No Iterations 0
 T goes from min(T) [0 0 0 0 0 0 0] -0.102057 to max(T) [0 0 0 0 0 0 0] 0.735582

ExecutionTime = 78.04 s  ClockTime = 1266 s

Time = 5.93
Courant Number mean: 0.34595 max: 0.6532
diagonal:  Solving for T, Initial residual = 0, Final residual = 0, No Iterations 0
diagonal:  Solving for T, Initial residual = 0, Final residual = 0, No Iterations 0
diagonal:  Solving for T, Initial residual = 0, Final residual = 0, No Iterations 0
diagonal:  Solving for T, Initial residual = 0, Final residual = 0, No Iterations 0
 T goes from min(T) [0 0 0 0 0 0 0] -0.101715 to max(T) [0 0 0 0 0 0 0] 0.736543

ExecutionTime = 78.17 s  ClockTime = 1268 s

Time = 5.94
Courant Number mean: 0.345337 max: 0.65143
diagonal:  Solving for T, Initial residual = 0, Final residual = 0, No Iterations 0
diagonal:  Solving for T, Initial residual = 0, Final residual = 0, No Iterations 0
diagonal:  Solving for T, Initial residual = 0, Final residual = 0, No Iterations 0
diagonal:  Solving for T, Initial residual = 0, Final residual = 0, No Iterations 0
 T goes from min(T) [0 0 0 0 0 0 0] -0.101779 to max(T) [0 0 0 0 0 0 0] 0.7375

ExecutionTime = 78.3 s  ClockTime = 1269 s

Time = 5.95
Courant Number mean: 0.344856 max: 0.649735
diagonal:  Solving for T, Initial residual = 0, Final residual = 0, No Iterations 0
diagonal:  Solving for T, Initial residual = 0, Final residual = 0, No Iterations 0
diagonal:  Solving for T, Initial residual = 0, Final residual = 0, No Iterations 0
diagonal:  Solving for T, Initial residual = 0, Final residual = 0, No Iterations 0
 T goes from min(T) [0 0 0 0 0 0 0] -0.101535 to max(T) [0 0 0 0 0 0 0] 0.737544

ExecutionTime = 78.42 s  ClockTime = 1271 s

Time = 5.96
Courant Number mean: 0.344308 max: 0.647915
diagonal:  Solving for T, Initial residual = 0, Final residual = 0, No Iterations 0
diagonal:  Solving for T, Initial residual = 0, Final residual = 0, No Iterations 0
diagonal:  Solving for T, Initial residual = 0, Final residual = 0, No Iterations 0
diagonal:  Solving for T, Initial residual = 0, Final residual = 0, No Iterations 0
 T goes from min(T) [0 0 0 0 0 0 0] -0.101455 to max(T) [0 0 0 0 0 0 0] 0.737658

ExecutionTime = 78.55 s  ClockTime = 1272 s

Time = 5.97
Courant Number mean: 0.343689 max: 0.646207
diagonal:  Solving for T, Initial residual = 0, Final residual = 0, No Iterations 0
diagonal:  Solving for T, Initial residual = 0, Final residual = 0, No Iterations 0
diagonal:  Solving for T, Initial residual = 0, Final residual = 0, No Iterations 0
diagonal:  Solving for T, Initial residual = 0, Final residual = 0, No Iterations 0
 T goes from min(T) [0 0 0 0 0 0 0] -0.100217 to max(T) [0 0 0 0 0 0 0] 0.737197

ExecutionTime = 78.68 s  ClockTime = 1273 s

Time = 5.98
Courant Number mean: 0.343028 max: 0.644344
diagonal:  Solving for T, Initial residual = 0, Final residual = 0, No Iterations 0
diagonal:  Solving for T, Initial residual = 0, Final residual = 0, No Iterations 0
diagonal:  Solving for T, Initial residual = 0, Final residual = 0, No Iterations 0
diagonal:  Solving for T, Initial residual = 0, Final residual = 0, No Iterations 0
 T goes from min(T) [0 0 0 0 0 0 0] -0.100495 to max(T) [0 0 0 0 0 0 0] 0.736253

ExecutionTime = 78.81 s  ClockTime = 1275 s

Time = 5.99
Courant Number mean: 0.342544 max: 0.642612
diagonal:  Solving for T, Initial residual = 0, Final residual = 0, No Iterations 0
diagonal:  Solving for T, Initial residual = 0, Final residual = 0, No Iterations 0
diagonal:  Solving for T, Initial residual = 0, Final residual = 0, No Iterations 0
diagonal:  Solving for T, Initial residual = 0, Final residual = 0, No Iterations 0
 T goes from min(T) [0 0 0 0 0 0 0] -0.100139 to max(T) [0 0 0 0 0 0 0] 0.735384

ExecutionTime = 78.93 s  ClockTime = 1276 s

Time = 6
Courant Number mean: 0.341991 max: 0.640698
diagonal:  Solving for T, Initial residual = 0, Final residual = 0, No Iterations 0
diagonal:  Solving for T, Initial residual = 0, Final residual = 0, No Iterations 0
diagonal:  Solving for T, Initial residual = 0, Final residual = 0, No Iterations 0
diagonal:  Solving for T, Initial residual = 0, Final residual = 0, No Iterations 0
 T goes from min(T) [0 0 0 0 0 0 0] -0.100221 to max(T) [0 0 0 0 0 0 0] 0.733576

ExecutionTime = 79.06 s  ClockTime = 1278 s

End

