/*---------------------------------------------------------------------------*\
| =========                 |                                                 |
| \\      /  F ield         | OpenFOAM: The Open Source CFD Toolbox           |
|  \\    /   O peration     | Version:  dev                                   |
|   \\  /    A nd           | Web:      www.OpenFOAM.org                      |
|    \\/     M anipulation  |                                                 |
\*---------------------------------------------------------------------------*/
Build  : dev-90f39e0d894d
Exec   : scalarDeformationWithGhosts explicit -case orthogonal/240x120/c2_explicit
Date   : May 23 2017
Time   : 20:31:22
Host   : "sws02hw.private.rdg.ac.uk"
PID    : 22923
Case   : orthogonal/240x120/c2_explicit
nProcs : 1
sigFpe : Enabling floating point exception trapping (FOAM_SIGFPE).
fileModificationChecking : Monitoring run-time modified files using timeStampMaster (fileModificationSkew 10)
allowSystemOperations : Allowing user-supplied system call operations

// * * * * * * * * * * * * * * * * * * * * * * * * * * * * * * * * * * * * * //
Create time

Create mesh for time = 0

Reading field T

Reading fields phi (compulsory), U and Uf (optional)

Calculating owner stencils
Calculating neighbour stencils

Calculating scalar transport

Courant Number mean: 0.749072 max: 1.47194
Time = 0.01
Courant Number mean: 0.748987 max: 1.47193
diagonal:  Solving for T, Initial residual = 0, Final residual = 0, No Iterations 0
diagonal:  Solving for T, Initial residual = 0, Final residual = 0, No Iterations 0
diagonal:  Solving for T, Initial residual = 0, Final residual = 0, No Iterations 0
diagonal:  Solving for T, Initial residual = 0, Final residual = 0, No Iterations 0
 T goes from min(T) [0 0 0 0 0 0 0] 8.29677e-21 to max(T) [0 0 0 0 0 0 0] 0.953871

ExecutionTime = 7.91 s  ClockTime = 161 s

Time = 0.02
Courant Number mean: 0.749043 max: 1.47188
diagonal:  Solving for T, Initial residual = 0, Final residual = 0, No Iterations 0
diagonal:  Solving for T, Initial residual = 0, Final residual = 0, No Iterations 0
diagonal:  Solving for T, Initial residual = 0, Final residual = 0, No Iterations 0
diagonal:  Solving for T, Initial residual = 0, Final residual = 0, No Iterations 0
 T goes from min(T) [0 0 0 0 0 0 0] 9.22497e-21 to max(T) [0 0 0 0 0 0 0] 0.953688

ExecutionTime = 8.43 s  ClockTime = 172 s

Time = 0.03
Courant Number mean: 0.748943 max: 1.47179
diagonal:  Solving for T, Initial residual = 0, Final residual = 0, No Iterations 0
diagonal:  Solving for T, Initial residual = 0, Final residual = 0, No Iterations 0
diagonal:  Solving for T, Initial residual = 0, Final residual = 0, No Iterations 0
diagonal:  Solving for T, Initial residual = 0, Final residual = 0, No Iterations 0
 T goes from min(T) [0 0 0 0 0 0 0] 8.47569e-21 to max(T) [0 0 0 0 0 0 0] 0.953217

ExecutionTime = 8.97 s  ClockTime = 183 s

Time = 0.04
Courant Number mean: 0.748956 max: 1.47166
diagonal:  Solving for T, Initial residual = 0, Final residual = 0, No Iterations 0
diagonal:  Solving for T, Initial residual = 0, Final residual = 0, No Iterations 0
diagonal:  Solving for T, Initial residual = 0, Final residual = 0, No Iterations 0
diagonal:  Solving for T, Initial residual = 0, Final residual = 0, No Iterations 0
 T goes from min(T) [0 0 0 0 0 0 0] 9.11214e-21 to max(T) [0 0 0 0 0 0 0] 0.953867

ExecutionTime = 9.47 s  ClockTime = 194 s

Time = 0.05
Courant Number mean: 0.74884 max: 1.47149
diagonal:  Solving for T, Initial residual = 0, Final residual = 0, No Iterations 0
diagonal:  Solving for T, Initial residual = 0, Final residual = 0, No Iterations 0
diagonal:  Solving for T, Initial residual = 0, Final residual = 0, No Iterations 0
diagonal:  Solving for T, Initial residual = 0, Final residual = 0, No Iterations 0
 T goes from min(T) [0 0 0 0 0 0 0] 8.54761e-21 to max(T) [0 0 0 0 0 0 0] 0.953943

ExecutionTime = 10.02 s  ClockTime = 205 s

Time = 0.06
Courant Number mean: 0.748811 max: 1.47128
diagonal:  Solving for T, Initial residual = 0, Final residual = 0, No Iterations 0
diagonal:  Solving for T, Initial residual = 0, Final residual = 0, No Iterations 0
diagonal:  Solving for T, Initial residual = 0, Final residual = 0, No Iterations 0
diagonal:  Solving for T, Initial residual = 0, Final residual = 0, No Iterations 0
 T goes from min(T) [0 0 0 0 0 0 0] 8.99083e-21 to max(T) [0 0 0 0 0 0 0] 0.953444

ExecutionTime = 10.5 s  ClockTime = 215 s

Time = 0.07
Courant Number mean: 0.74868 max: 1.47103
diagonal:  Solving for T, Initial residual = 0, Final residual = 0, No Iterations 0
diagonal:  Solving for T, Initial residual = 0, Final residual = 0, No Iterations 0
diagonal:  Solving for T, Initial residual = 0, Final residual = 0, No Iterations 0
diagonal:  Solving for T, Initial residual = 0, Final residual = 0, No Iterations 0
 T goes from min(T) [0 0 0 0 0 0 0] 8.58975e-21 to max(T) [0 0 0 0 0 0 0] 0.954128

ExecutionTime = 10.99 s  ClockTime = 225 s

Time = 0.08
Courant Number mean: 0.748608 max: 1.47074
diagonal:  Solving for T, Initial residual = 0, Final residual = 0, No Iterations 0
diagonal:  Solving for T, Initial residual = 0, Final residual = 0, No Iterations 0
diagonal:  Solving for T, Initial residual = 0, Final residual = 0, No Iterations 0
diagonal:  Solving for T, Initial residual = 0, Final residual = 0, No Iterations 0
 T goes from min(T) [0 0 0 0 0 0 0] 8.87423e-21 to max(T) [0 0 0 0 0 0 0] 0.953452

ExecutionTime = 11.48 s  ClockTime = 236 s

Time = 0.09
Courant Number mean: 0.748461 max: 1.47041
diagonal:  Solving for T, Initial residual = 0, Final residual = 0, No Iterations 0
diagonal:  Solving for T, Initial residual = 0, Final residual = 0, No Iterations 0
diagonal:  Solving for T, Initial residual = 0, Final residual = 0, No Iterations 0
diagonal:  Solving for T, Initial residual = 0, Final residual = 0, No Iterations 0
 T goes from min(T) [0 0 0 0 0 0 0] 8.62066e-21 to max(T) [0 0 0 0 0 0 0] 0.953721

ExecutionTime = 11.97 s  ClockTime = 246 s

Time = 0.1
Courant Number mean: 0.748347 max: 1.47004
diagonal:  Solving for T, Initial residual = 0, Final residual = 0, No Iterations 0
diagonal:  Solving for T, Initial residual = 0, Final residual = 0, No Iterations 0
diagonal:  Solving for T, Initial residual = 0, Final residual = 0, No Iterations 0
diagonal:  Solving for T, Initial residual = 0, Final residual = 0, No Iterations 0
 T goes from min(T) [0 0 0 0 0 0 0] 8.76582e-21 to max(T) [0 0 0 0 0 0 0] 0.953748

ExecutionTime = 12.45 s  ClockTime = 255 s

Time = 0.11
Courant Number mean: 0.748185 max: 1.46963
diagonal:  Solving for T, Initial residual = 0, Final residual = 0, No Iterations 0
diagonal:  Solving for T, Initial residual = 0, Final residual = 0, No Iterations 0
diagonal:  Solving for T, Initial residual = 0, Final residual = 0, No Iterations 0
diagonal:  Solving for T, Initial residual = 0, Final residual = 0, No Iterations 0
 T goes from min(T) [0 0 0 0 0 0 0] 8.64962e-21 to max(T) [0 0 0 0 0 0 0] 0.953955

ExecutionTime = 12.92 s  ClockTime = 264 s

Time = 0.12
Courant Number mean: 0.748028 max: 1.46918
diagonal:  Solving for T, Initial residual = 0, Final residual = 0, No Iterations 0
diagonal:  Solving for T, Initial residual = 0, Final residual = 0, No Iterations 0
diagonal:  Solving for T, Initial residual = 0, Final residual = 0, No Iterations 0
diagonal:  Solving for T, Initial residual = 0, Final residual = 0, No Iterations 0
 T goes from min(T) [0 0 0 0 0 0 0] 8.66793e-21 to max(T) [0 0 0 0 0 0 0] 0.953534

ExecutionTime = 13.43 s  ClockTime = 274 s

Time = 0.13
Courant Number mean: 0.74785 max: 1.46869
diagonal:  Solving for T, Initial residual = 0, Final residual = 0, No Iterations 0
diagonal:  Solving for T, Initial residual = 0, Final residual = 0, No Iterations 0
diagonal:  Solving for T, Initial residual = 0, Final residual = 0, No Iterations 0
diagonal:  Solving for T, Initial residual = 0, Final residual = 0, No Iterations 0
 T goes from min(T) [0 0 0 0 0 0 0] -2.17537e-11 to max(T) [0 0 0 0 0 0 0] 0.954361

ExecutionTime = 13.93 s  ClockTime = 283 s

Time = 0.14
Courant Number mean: 0.747651 max: 1.46816
diagonal:  Solving for T, Initial residual = 0, Final residual = 0, No Iterations 0
diagonal:  Solving for T, Initial residual = 0, Final residual = 0, No Iterations 0
diagonal:  Solving for T, Initial residual = 0, Final residual = 0, No Iterations 0
diagonal:  Solving for T, Initial residual = 0, Final residual = 0, No Iterations 0
 T goes from min(T) [0 0 0 0 0 0 0] -5.18189e-10 to max(T) [0 0 0 0 0 0 0] 0.953766

ExecutionTime = 14.4 s  ClockTime = 292 s

Time = 0.15
Courant Number mean: 0.747458 max: 1.46759
diagonal:  Solving for T, Initial residual = 0, Final residual = 0, No Iterations 0
diagonal:  Solving for T, Initial residual = 0, Final residual = 0, No Iterations 0
diagonal:  Solving for T, Initial residual = 0, Final residual = 0, No Iterations 0
diagonal:  Solving for T, Initial residual = 0, Final residual = 0, No Iterations 0
 T goes from min(T) [0 0 0 0 0 0 0] -3.7435e-09 to max(T) [0 0 0 0 0 0 0] 0.954294

ExecutionTime = 14.89 s  ClockTime = 301 s

Time = 0.16
Courant Number mean: 0.747217 max: 1.46698
diagonal:  Solving for T, Initial residual = 0, Final residual = 0, No Iterations 0
diagonal:  Solving for T, Initial residual = 0, Final residual = 0, No Iterations 0
diagonal:  Solving for T, Initial residual = 0, Final residual = 0, No Iterations 0
diagonal:  Solving for T, Initial residual = 0, Final residual = 0, No Iterations 0
 T goes from min(T) [0 0 0 0 0 0 0] -1.4909e-08 to max(T) [0 0 0 0 0 0 0] 0.954375

ExecutionTime = 15.37 s  ClockTime = 310 s

Time = 0.17
Courant Number mean: 0.747008 max: 1.46633
diagonal:  Solving for T, Initial residual = 0, Final residual = 0, No Iterations 0
diagonal:  Solving for T, Initial residual = 0, Final residual = 0, No Iterations 0
diagonal:  Solving for T, Initial residual = 0, Final residual = 0, No Iterations 0
diagonal:  Solving for T, Initial residual = 0, Final residual = 0, No Iterations 0
 T goes from min(T) [0 0 0 0 0 0 0] -4.20053e-08 to max(T) [0 0 0 0 0 0 0] 0.953833

ExecutionTime = 15.85 s  ClockTime = 319 s

Time = 0.18
Courant Number mean: 0.746726 max: 1.46565
diagonal:  Solving for T, Initial residual = 0, Final residual = 0, No Iterations 0
diagonal:  Solving for T, Initial residual = 0, Final residual = 0, No Iterations 0
diagonal:  Solving for T, Initial residual = 0, Final residual = 0, No Iterations 0
diagonal:  Solving for T, Initial residual = 0, Final residual = 0, No Iterations 0
 T goes from min(T) [0 0 0 0 0 0 0] -1.11233e-07 to max(T) [0 0 0 0 0 0 0] 0.954555

ExecutionTime = 16.33 s  ClockTime = 329 s

Time = 0.19
Courant Number mean: 0.746501 max: 1.46492
diagonal:  Solving for T, Initial residual = 0, Final residual = 0, No Iterations 0
diagonal:  Solving for T, Initial residual = 0, Final residual = 0, No Iterations 0
diagonal:  Solving for T, Initial residual = 0, Final residual = 0, No Iterations 0
diagonal:  Solving for T, Initial residual = 0, Final residual = 0, No Iterations 0
 T goes from min(T) [0 0 0 0 0 0 0] -3.24622e-07 to max(T) [0 0 0 0 0 0 0] 0.954081

ExecutionTime = 16.84 s  ClockTime = 338 s

Time = 0.2
Courant Number mean: 0.746178 max: 1.46415
diagonal:  Solving for T, Initial residual = 0, Final residual = 0, No Iterations 0
diagonal:  Solving for T, Initial residual = 0, Final residual = 0, No Iterations 0
diagonal:  Solving for T, Initial residual = 0, Final residual = 0, No Iterations 0
diagonal:  Solving for T, Initial residual = 0, Final residual = 0, No Iterations 0
 T goes from min(T) [0 0 0 0 0 0 0] -6.96616e-07 to max(T) [0 0 0 0 0 0 0] 0.954384

ExecutionTime = 17.32 s  ClockTime = 348 s

Time = 0.21
Courant Number mean: 0.745937 max: 1.46335
diagonal:  Solving for T, Initial residual = 0, Final residual = 0, No Iterations 0
diagonal:  Solving for T, Initial residual = 0, Final residual = 0, No Iterations 0
diagonal:  Solving for T, Initial residual = 0, Final residual = 0, No Iterations 0
diagonal:  Solving for T, Initial residual = 0, Final residual = 0, No Iterations 0
 T goes from min(T) [0 0 0 0 0 0 0] -1.34434e-06 to max(T) [0 0 0 0 0 0 0] 0.95455

ExecutionTime = 17.8 s  ClockTime = 357 s

Time = 0.22
Courant Number mean: 0.745573 max: 1.4625
diagonal:  Solving for T, Initial residual = 0, Final residual = 0, No Iterations 0
diagonal:  Solving for T, Initial residual = 0, Final residual = 0, No Iterations 0
diagonal:  Solving for T, Initial residual = 0, Final residual = 0, No Iterations 0
diagonal:  Solving for T, Initial residual = 0, Final residual = 0, No Iterations 0
 T goes from min(T) [0 0 0 0 0 0 0] -2.66474e-06 to max(T) [0 0 0 0 0 0 0] 0.953934

ExecutionTime = 18.29 s  ClockTime = 366 s

Time = 0.23
Courant Number mean: 0.745317 max: 1.46162
diagonal:  Solving for T, Initial residual = 0, Final residual = 0, No Iterations 0
diagonal:  Solving for T, Initial residual = 0, Final residual = 0, No Iterations 0
diagonal:  Solving for T, Initial residual = 0, Final residual = 0, No Iterations 0
diagonal:  Solving for T, Initial residual = 0, Final residual = 0, No Iterations 0
 T goes from min(T) [0 0 0 0 0 0 0] -5.69298e-06 to max(T) [0 0 0 0 0 0 0] 0.954675

ExecutionTime = 18.76 s  ClockTime = 374 s

Time = 0.24
Courant Number mean: 0.74491 max: 1.46069
diagonal:  Solving for T, Initial residual = 0, Final residual = 0, No Iterations 0
diagonal:  Solving for T, Initial residual = 0, Final residual = 0, No Iterations 0
diagonal:  Solving for T, Initial residual = 0, Final residual = 0, No Iterations 0
diagonal:  Solving for T, Initial residual = 0, Final residual = 0, No Iterations 0
 T goes from min(T) [0 0 0 0 0 0 0] -9.50891e-06 to max(T) [0 0 0 0 0 0 0] 0.954249

ExecutionTime = 19.27 s  ClockTime = 382 s

Time = 0.25
Courant Number mean: 0.744639 max: 1.45973
diagonal:  Solving for T, Initial residual = 0, Final residual = 0, No Iterations 0
diagonal:  Solving for T, Initial residual = 0, Final residual = 0, No Iterations 0
diagonal:  Solving for T, Initial residual = 0, Final residual = 0, No Iterations 0
diagonal:  Solving for T, Initial residual = 0, Final residual = 0, No Iterations 0
 T goes from min(T) [0 0 0 0 0 0 0] -1.95834e-05 to max(T) [0 0 0 0 0 0 0] 0.954501

ExecutionTime = 19.73 s  ClockTime = 389 s

Time = 0.26
Courant Number mean: 0.744203 max: 1.45874
diagonal:  Solving for T, Initial residual = 0, Final residual = 0, No Iterations 0
diagonal:  Solving for T, Initial residual = 0, Final residual = 0, No Iterations 0
diagonal:  Solving for T, Initial residual = 0, Final residual = 0, No Iterations 0
diagonal:  Solving for T, Initial residual = 0, Final residual = 0, No Iterations 0
 T goes from min(T) [0 0 0 0 0 0 0] -3.24321e-05 to max(T) [0 0 0 0 0 0 0] 0.954518

ExecutionTime = 20.21 s  ClockTime = 397 s

Time = 0.27
Courant Number mean: 0.743906 max: 1.45772
diagonal:  Solving for T, Initial residual = 0, Final residual = 0, No Iterations 0
diagonal:  Solving for T, Initial residual = 0, Final residual = 0, No Iterations 0
diagonal:  Solving for T, Initial residual = 0, Final residual = 0, No Iterations 0
diagonal:  Solving for T, Initial residual = 0, Final residual = 0, No Iterations 0
 T goes from min(T) [0 0 0 0 0 0 0] -5.78034e-05 to max(T) [0 0 0 0 0 0 0] 0.954045

ExecutionTime = 20.7 s  ClockTime = 404 s

Time = 0.28
Courant Number mean: 0.743454 max: 1.45665
diagonal:  Solving for T, Initial residual = 0, Final residual = 0, No Iterations 0
diagonal:  Solving for T, Initial residual = 0, Final residual = 0, No Iterations 0
diagonal:  Solving for T, Initial residual = 0, Final residual = 0, No Iterations 0
diagonal:  Solving for T, Initial residual = 0, Final residual = 0, No Iterations 0
 T goes from min(T) [0 0 0 0 0 0 0] -0.000101567 to max(T) [0 0 0 0 0 0 0] 0.954361

ExecutionTime = 21.21 s  ClockTime = 412 s

Time = 0.29
Courant Number mean: 0.743116 max: 1.45555
diagonal:  Solving for T, Initial residual = 0, Final residual = 0, No Iterations 0
diagonal:  Solving for T, Initial residual = 0, Final residual = 0, No Iterations 0
diagonal:  Solving for T, Initial residual = 0, Final residual = 0, No Iterations 0
diagonal:  Solving for T, Initial residual = 0, Final residual = 0, No Iterations 0
 T goes from min(T) [0 0 0 0 0 0 0] -0.00017649 to max(T) [0 0 0 0 0 0 0] 0.953332

ExecutionTime = 21.71 s  ClockTime = 419 s

Time = 0.3
Courant Number mean: 0.74265 max: 1.45441
diagonal:  Solving for T, Initial residual = 0, Final residual = 0, No Iterations 0
diagonal:  Solving for T, Initial residual = 0, Final residual = 0, No Iterations 0
diagonal:  Solving for T, Initial residual = 0, Final residual = 0, No Iterations 0
diagonal:  Solving for T, Initial residual = 0, Final residual = 0, No Iterations 0
 T goes from min(T) [0 0 0 0 0 0 0] -0.000290837 to max(T) [0 0 0 0 0 0 0] 0.954333

ExecutionTime = 22.19 s  ClockTime = 426 s

Time = 0.31
Courant Number mean: 0.742271 max: 1.45322
diagonal:  Solving for T, Initial residual = 0, Final residual = 0, No Iterations 0
diagonal:  Solving for T, Initial residual = 0, Final residual = 0, No Iterations 0
diagonal:  Solving for T, Initial residual = 0, Final residual = 0, No Iterations 0
diagonal:  Solving for T, Initial residual = 0, Final residual = 0, No Iterations 0
 T goes from min(T) [0 0 0 0 0 0 0] -0.000509199 to max(T) [0 0 0 0 0 0 0] 0.953914

ExecutionTime = 22.7 s  ClockTime = 434 s

Time = 0.32
Courant Number mean: 0.74179 max: 1.452
diagonal:  Solving for T, Initial residual = 0, Final residual = 0, No Iterations 0
diagonal:  Solving for T, Initial residual = 0, Final residual = 0, No Iterations 0
diagonal:  Solving for T, Initial residual = 0, Final residual = 0, No Iterations 0
diagonal:  Solving for T, Initial residual = 0, Final residual = 0, No Iterations 0
 T goes from min(T) [0 0 0 0 0 0 0] -0.000859673 to max(T) [0 0 0 0 0 0 0] 0.954759

ExecutionTime = 23.2 s  ClockTime = 441 s

Time = 0.33
Courant Number mean: 0.74137 max: 1.45074
diagonal:  Solving for T, Initial residual = 0, Final residual = 0, No Iterations 0
diagonal:  Solving for T, Initial residual = 0, Final residual = 0, No Iterations 0
diagonal:  Solving for T, Initial residual = 0, Final residual = 0, No Iterations 0
diagonal:  Solving for T, Initial residual = 0, Final residual = 0, No Iterations 0
 T goes from min(T) [0 0 0 0 0 0 0] -0.00146274 to max(T) [0 0 0 0 0 0 0] 0.954265

ExecutionTime = 23.73 s  ClockTime = 449 s

Time = 0.34
Courant Number mean: 0.740875 max: 1.44944
diagonal:  Solving for T, Initial residual = 0, Final residual = 0, No Iterations 0
diagonal:  Solving for T, Initial residual = 0, Final residual = 0, No Iterations 0
diagonal:  Solving for T, Initial residual = 0, Final residual = 0, No Iterations 0
diagonal:  Solving for T, Initial residual = 0, Final residual = 0, No Iterations 0
 T goes from min(T) [0 0 0 0 0 0 0] -0.00242914 to max(T) [0 0 0 0 0 0 0] 0.954657

ExecutionTime = 24.21 s  ClockTime = 457 s

Time = 0.35
Courant Number mean: 0.740414 max: 1.4481
diagonal:  Solving for T, Initial residual = 0, Final residual = 0, No Iterations 0
diagonal:  Solving for T, Initial residual = 0, Final residual = 0, No Iterations 0
diagonal:  Solving for T, Initial residual = 0, Final residual = 0, No Iterations 0
diagonal:  Solving for T, Initial residual = 0, Final residual = 0, No Iterations 0
 T goes from min(T) [0 0 0 0 0 0 0] -0.0041437 to max(T) [0 0 0 0 0 0 0] 0.953728

ExecutionTime = 24.71 s  ClockTime = 464 s

Time = 0.36
Courant Number mean: 0.739905 max: 1.44673
diagonal:  Solving for T, Initial residual = 0, Final residual = 0, No Iterations 0
diagonal:  Solving for T, Initial residual = 0, Final residual = 0, No Iterations 0
diagonal:  Solving for T, Initial residual = 0, Final residual = 0, No Iterations 0
diagonal:  Solving for T, Initial residual = 0, Final residual = 0, No Iterations 0
 T goes from min(T) [0 0 0 0 0 0 0] -0.00664254 to max(T) [0 0 0 0 0 0 0] 0.954276

ExecutionTime = 25.19 s  ClockTime = 471 s

Time = 0.37
Courant Number mean: 0.739404 max: 1.44531
diagonal:  Solving for T, Initial residual = 0, Final residual = 0, No Iterations 0
diagonal:  Solving for T, Initial residual = 0, Final residual = 0, No Iterations 0
diagonal:  Solving for T, Initial residual = 0, Final residual = 0, No Iterations 0
diagonal:  Solving for T, Initial residual = 0, Final residual = 0, No Iterations 0
 T goes from min(T) [0 0 0 0 0 0 0] -0.0111787 to max(T) [0 0 0 0 0 0 0] 0.954364

ExecutionTime = 25.68 s  ClockTime = 479 s

Time = 0.38
Courant Number mean: 0.738882 max: 1.44385
diagonal:  Solving for T, Initial residual = 0, Final residual = 0, No Iterations 0
diagonal:  Solving for T, Initial residual = 0, Final residual = 0, No Iterations 0
diagonal:  Solving for T, Initial residual = 0, Final residual = 0, No Iterations 0
diagonal:  Solving for T, Initial residual = 0, Final residual = 0, No Iterations 0
 T goes from min(T) [0 0 0 0 0 0 0] -0.0184146 to max(T) [0 0 0 0 0 0 0] 0.954774

ExecutionTime = 26.19 s  ClockTime = 486 s

Time = 0.39
Courant Number mean: 0.73834 max: 1.44236
diagonal:  Solving for T, Initial residual = 0, Final residual = 0, No Iterations 0
diagonal:  Solving for T, Initial residual = 0, Final residual = 0, No Iterations 0
diagonal:  Solving for T, Initial residual = 0, Final residual = 0, No Iterations 0
diagonal:  Solving for T, Initial residual = 0, Final residual = 0, No Iterations 0
 T goes from min(T) [0 0 0 0 0 0 0] -0.0279846 to max(T) [0 0 0 0 0 0 0] 0.953755

ExecutionTime = 26.69 s  ClockTime = 494 s

Time = 0.4
Courant Number mean: 0.737805 max: 1.44083
diagonal:  Solving for T, Initial residual = 0, Final residual = 0, No Iterations 0
diagonal:  Solving for T, Initial residual = 0, Final residual = 0, No Iterations 0
diagonal:  Solving for T, Initial residual = 0, Final residual = 0, No Iterations 0
diagonal:  Solving for T, Initial residual = 0, Final residual = 0, No Iterations 0
 T goes from min(T) [0 0 0 0 0 0 0] -0.0499349 to max(T) [0 0 0 0 0 0 0] 0.954197

ExecutionTime = 27.19 s  ClockTime = 501 s

Time = 0.41
Courant Number mean: 0.737224 max: 1.43926
diagonal:  Solving for T, Initial residual = 0, Final residual = 0, No Iterations 0
diagonal:  Solving for T, Initial residual = 0, Final residual = 0, No Iterations 0
diagonal:  Solving for T, Initial residual = 0, Final residual = 0, No Iterations 0
diagonal:  Solving for T, Initial residual = 0, Final residual = 0, No Iterations 0
 T goes from min(T) [0 0 0 0 0 0 0] -0.0835164 to max(T) [0 0 0 0 0 0 0] 0.954064

ExecutionTime = 27.7 s  ClockTime = 509 s

Time = 0.42
Courant Number mean: 0.736675 max: 1.43765
diagonal:  Solving for T, Initial residual = 0, Final residual = 0, No Iterations 0
diagonal:  Solving for T, Initial residual = 0, Final residual = 0, No Iterations 0
diagonal:  Solving for T, Initial residual = 0, Final residual = 0, No Iterations 0
diagonal:  Solving for T, Initial residual = 0, Final residual = 0, No Iterations 0
 T goes from min(T) [0 0 0 0 0 0 0] -0.131247 to max(T) [0 0 0 0 0 0 0] 0.954789

ExecutionTime = 28.18 s  ClockTime = 516 s

Time = 0.43
Courant Number mean: 0.736055 max: 1.436
diagonal:  Solving for T, Initial residual = 0, Final residual = 0, No Iterations 0
diagonal:  Solving for T, Initial residual = 0, Final residual = 0, No Iterations 0
diagonal:  Solving for T, Initial residual = 0, Final residual = 0, No Iterations 0
diagonal:  Solving for T, Initial residual = 0, Final residual = 0, No Iterations 0
 T goes from min(T) [0 0 0 0 0 0 0] -0.218236 to max(T) [0 0 0 0 0 0 0] 0.953833

ExecutionTime = 28.78 s  ClockTime = 525 s

Time = 0.44
Courant Number mean: 0.735492 max: 1.43431
diagonal:  Solving for T, Initial residual = 0, Final residual = 0, No Iterations 0
diagonal:  Solving for T, Initial residual = 0, Final residual = 0, No Iterations 0
diagonal:  Solving for T, Initial residual = 0, Final residual = 0, No Iterations 0
diagonal:  Solving for T, Initial residual = 0, Final residual = 0, No Iterations 0
 T goes from min(T) [0 0 0 0 0 0 0] -0.377191 to max(T) [0 0 0 0 0 0 0] 0.954649

ExecutionTime = 29.27 s  ClockTime = 532 s

Time = 0.45
Courant Number mean: 0.734834 max: 1.43259
diagonal:  Solving for T, Initial residual = 0, Final residual = 0, No Iterations 0
diagonal:  Solving for T, Initial residual = 0, Final residual = 0, No Iterations 0
diagonal:  Solving for T, Initial residual = 0, Final residual = 0, No Iterations 0
diagonal:  Solving for T, Initial residual = 0, Final residual = 0, No Iterations 0
 T goes from min(T) [0 0 0 0 0 0 0] -0.61955 to max(T) [0 0 0 0 0 0 0] 0.954113

ExecutionTime = 29.75 s  ClockTime = 540 s

Time = 0.46
Courant Number mean: 0.734256 max: 1.43082
diagonal:  Solving for T, Initial residual = 0, Final residual = 0, No Iterations 0
diagonal:  Solving for T, Initial residual = 0, Final residual = 0, No Iterations 0
diagonal:  Solving for T, Initial residual = 0, Final residual = 0, No Iterations 0
diagonal:  Solving for T, Initial residual = 0, Final residual = 0, No Iterations 0
 T goes from min(T) [0 0 0 0 0 0 0] -0.992007 to max(T) [0 0 0 0 0 0 0] 1.00062

ExecutionTime = 30.24 s  ClockTime = 547 s

Time = 0.47
Courant Number mean: 0.73356 max: 1.42902
diagonal:  Solving for T, Initial residual = 0, Final residual = 0, No Iterations 0
diagonal:  Solving for T, Initial residual = 0, Final residual = 0, No Iterations 0
diagonal:  Solving for T, Initial residual = 0, Final residual = 0, No Iterations 0
diagonal:  Solving for T, Initial residual = 0, Final residual = 0, No Iterations 0
 T goes from min(T) [0 0 0 0 0 0 0] -1.62767 to max(T) [0 0 0 0 0 0 0] 1.60741

ExecutionTime = 30.72 s  ClockTime = 554 s

Time = 0.48
Courant Number mean: 0.732968 max: 1.42718
diagonal:  Solving for T, Initial residual = 0, Final residual = 0, No Iterations 0
diagonal:  Solving for T, Initial residual = 0, Final residual = 0, No Iterations 0
diagonal:  Solving for T, Initial residual = 0, Final residual = 0, No Iterations 0
diagonal:  Solving for T, Initial residual = 0, Final residual = 0, No Iterations 0
 T goes from min(T) [0 0 0 0 0 0 0] -2.70981 to max(T) [0 0 0 0 0 0 0] 2.71087

ExecutionTime = 31.21 s  ClockTime = 562 s

Time = 0.49
Courant Number mean: 0.732233 max: 1.42531
diagonal:  Solving for T, Initial residual = 0, Final residual = 0, No Iterations 0
diagonal:  Solving for T, Initial residual = 0, Final residual = 0, No Iterations 0
diagonal:  Solving for T, Initial residual = 0, Final residual = 0, No Iterations 0
diagonal:  Solving for T, Initial residual = 0, Final residual = 0, No Iterations 0
 T goes from min(T) [0 0 0 0 0 0 0] -4.39113 to max(T) [0 0 0 0 0 0 0] 4.51647

ExecutionTime = 31.79 s  ClockTime = 570 s

Time = 0.5
Courant Number mean: 0.73163 max: 1.42339
diagonal:  Solving for T, Initial residual = 0, Final residual = 0, No Iterations 0
diagonal:  Solving for T, Initial residual = 0, Final residual = 0, No Iterations 0
diagonal:  Solving for T, Initial residual = 0, Final residual = 0, No Iterations 0
diagonal:  Solving for T, Initial residual = 0, Final residual = 0, No Iterations 0
 T goes from min(T) [0 0 0 0 0 0 0] -7.11122 to max(T) [0 0 0 0 0 0 0] 7.17406

ExecutionTime = 32.35 s  ClockTime = 579 s

Time = 0.51
Courant Number mean: 0.730866 max: 1.42145
diagonal:  Solving for T, Initial residual = 0, Final residual = 0, No Iterations 0
diagonal:  Solving for T, Initial residual = 0, Final residual = 0, No Iterations 0
diagonal:  Solving for T, Initial residual = 0, Final residual = 0, No Iterations 0
diagonal:  Solving for T, Initial residual = 0, Final residual = 0, No Iterations 0
 T goes from min(T) [0 0 0 0 0 0 0] -11.4019 to max(T) [0 0 0 0 0 0 0] 11.0903

ExecutionTime = 32.84 s  ClockTime = 586 s

Time = 0.52
Courant Number mean: 0.73024 max: 1.41948
diagonal:  Solving for T, Initial residual = 0, Final residual = 0, No Iterations 0
diagonal:  Solving for T, Initial residual = 0, Final residual = 0, No Iterations 0
diagonal:  Solving for T, Initial residual = 0, Final residual = 0, No Iterations 0
diagonal:  Solving for T, Initial residual = 0, Final residual = 0, No Iterations 0
 T goes from min(T) [0 0 0 0 0 0 0] -18.6816 to max(T) [0 0 0 0 0 0 0] 18.542

ExecutionTime = 33.32 s  ClockTime = 593 s

Time = 0.53
Courant Number mean: 0.729464 max: 1.41747
diagonal:  Solving for T, Initial residual = 0, Final residual = 0, No Iterations 0
diagonal:  Solving for T, Initial residual = 0, Final residual = 0, No Iterations 0
diagonal:  Solving for T, Initial residual = 0, Final residual = 0, No Iterations 0
diagonal:  Solving for T, Initial residual = 0, Final residual = 0, No Iterations 0
 T goes from min(T) [0 0 0 0 0 0 0] -29.3654 to max(T) [0 0 0 0 0 0 0] 30.3379

ExecutionTime = 33.82 s  ClockTime = 601 s

Time = 0.54
Courant Number mean: 0.728799 max: 1.41542
diagonal:  Solving for T, Initial residual = 0, Final residual = 0, No Iterations 0
diagonal:  Solving for T, Initial residual = 0, Final residual = 0, No Iterations 0
diagonal:  Solving for T, Initial residual = 0, Final residual = 0, No Iterations 0
diagonal:  Solving for T, Initial residual = 0, Final residual = 0, No Iterations 0
 T goes from min(T) [0 0 0 0 0 0 0] -47.0507 to max(T) [0 0 0 0 0 0 0] 47.4091

ExecutionTime = 34.3 s  ClockTime = 608 s

Time = 0.55
Courant Number mean: 0.72801 max: 1.41333
diagonal:  Solving for T, Initial residual = 0, Final residual = 0, No Iterations 0
diagonal:  Solving for T, Initial residual = 0, Final residual = 0, No Iterations 0
diagonal:  Solving for T, Initial residual = 0, Final residual = 0, No Iterations 0
diagonal:  Solving for T, Initial residual = 0, Final residual = 0, No Iterations 0
 T goes from min(T) [0 0 0 0 0 0 0] -75.1894 to max(T) [0 0 0 0 0 0 0] 73.7168

ExecutionTime = 34.78 s  ClockTime = 615 s

Time = 0.56
Courant Number mean: 0.727308 max: 1.41121
diagonal:  Solving for T, Initial residual = 0, Final residual = 0, No Iterations 0
diagonal:  Solving for T, Initial residual = 0, Final residual = 0, No Iterations 0
diagonal:  Solving for T, Initial residual = 0, Final residual = 0, No Iterations 0
diagonal:  Solving for T, Initial residual = 0, Final residual = 0, No Iterations 0
 T goes from min(T) [0 0 0 0 0 0 0] -119.709 to max(T) [0 0 0 0 0 0 0] 117.951

ExecutionTime = 35.26 s  ClockTime = 622 s

Time = 0.57
Courant Number mean: 0.726508 max: 1.40904
diagonal:  Solving for T, Initial residual = 0, Final residual = 0, No Iterations 0
diagonal:  Solving for T, Initial residual = 0, Final residual = 0, No Iterations 0
diagonal:  Solving for T, Initial residual = 0, Final residual = 0, No Iterations 0
diagonal:  Solving for T, Initial residual = 0, Final residual = 0, No Iterations 0
 T goes from min(T) [0 0 0 0 0 0 0] -184.561 to max(T) [0 0 0 0 0 0 0] 187.342

ExecutionTime = 35.81 s  ClockTime = 631 s

Time = 0.58
Courant Number mean: 0.725767 max: 1.40684
diagonal:  Solving for T, Initial residual = 0, Final residual = 0, No Iterations 0
diagonal:  Solving for T, Initial residual = 0, Final residual = 0, No Iterations 0
diagonal:  Solving for T, Initial residual = 0, Final residual = 0, No Iterations 0
diagonal:  Solving for T, Initial residual = 0, Final residual = 0, No Iterations 0
 T goes from min(T) [0 0 0 0 0 0 0] -299.853 to max(T) [0 0 0 0 0 0 0] 294.259

ExecutionTime = 36.38 s  ClockTime = 639 s

Time = 0.59
Courant Number mean: 0.724958 max: 1.40461
diagonal:  Solving for T, Initial residual = 0, Final residual = 0, No Iterations 0
diagonal:  Solving for T, Initial residual = 0, Final residual = 0, No Iterations 0
diagonal:  Solving for T, Initial residual = 0, Final residual = 0, No Iterations 0
diagonal:  Solving for T, Initial residual = 0, Final residual = 0, No Iterations 0
 T goes from min(T) [0 0 0 0 0 0 0] -469.733 to max(T) [0 0 0 0 0 0 0] 456.41

ExecutionTime = 36.89 s  ClockTime = 647 s

Time = 0.6
Courant Number mean: 0.724178 max: 1.40233
diagonal:  Solving for T, Initial residual = 0, Final residual = 0, No Iterations 0
diagonal:  Solving for T, Initial residual = 0, Final residual = 0, No Iterations 0
diagonal:  Solving for T, Initial residual = 0, Final residual = 0, No Iterations 0
diagonal:  Solving for T, Initial residual = 0, Final residual = 0, No Iterations 0
 T goes from min(T) [0 0 0 0 0 0 0] -711.96 to max(T) [0 0 0 0 0 0 0] 700.837

ExecutionTime = 37.39 s  ClockTime = 654 s

Time = 0.61
Courant Number mean: 0.723358 max: 1.40002
diagonal:  Solving for T, Initial residual = 0, Final residual = 0, No Iterations 0
diagonal:  Solving for T, Initial residual = 0, Final residual = 0, No Iterations 0
diagonal:  Solving for T, Initial residual = 0, Final residual = 0, No Iterations 0
diagonal:  Solving for T, Initial residual = 0, Final residual = 0, No Iterations 0
 T goes from min(T) [0 0 0 0 0 0 0] -1095.61 to max(T) [0 0 0 0 0 0 0] 1108.86

ExecutionTime = 37.87 s  ClockTime = 662 s

Time = 0.62
Courant Number mean: 0.722543 max: 1.39767
diagonal:  Solving for T, Initial residual = 0, Final residual = 0, No Iterations 0
diagonal:  Solving for T, Initial residual = 0, Final residual = 0, No Iterations 0
diagonal:  Solving for T, Initial residual = 0, Final residual = 0, No Iterations 0
diagonal:  Solving for T, Initial residual = 0, Final residual = 0, No Iterations 0
 T goes from min(T) [0 0 0 0 0 0 0] -1737.78 to max(T) [0 0 0 0 0 0 0] 1742.58

ExecutionTime = 38.36 s  ClockTime = 669 s

Time = 0.63
Courant Number mean: 0.721711 max: 1.39529
diagonal:  Solving for T, Initial residual = 0, Final residual = 0, No Iterations 0
diagonal:  Solving for T, Initial residual = 0, Final residual = 0, No Iterations 0
diagonal:  Solving for T, Initial residual = 0, Final residual = 0, No Iterations 0
diagonal:  Solving for T, Initial residual = 0, Final residual = 0, No Iterations 0
 T goes from min(T) [0 0 0 0 0 0 0] -2632.11 to max(T) [0 0 0 0 0 0 0] 2641.31

ExecutionTime = 38.85 s  ClockTime = 676 s

Time = 0.64
Courant Number mean: 0.720861 max: 1.39287
diagonal:  Solving for T, Initial residual = 0, Final residual = 0, No Iterations 0
diagonal:  Solving for T, Initial residual = 0, Final residual = 0, No Iterations 0
diagonal:  Solving for T, Initial residual = 0, Final residual = 0, No Iterations 0
diagonal:  Solving for T, Initial residual = 0, Final residual = 0, No Iterations 0
 T goes from min(T) [0 0 0 0 0 0 0] -3902.51 to max(T) [0 0 0 0 0 0 0] 3841.25

ExecutionTime = 39.33 s  ClockTime = 684 s

Time = 0.65
Courant Number mean: 0.720019 max: 1.39041
diagonal:  Solving for T, Initial residual = 0, Final residual = 0, No Iterations 0
diagonal:  Solving for T, Initial residual = 0, Final residual = 0, No Iterations 0
diagonal:  Solving for T, Initial residual = 0, Final residual = 0, No Iterations 0
diagonal:  Solving for T, Initial residual = 0, Final residual = 0, No Iterations 0
 T goes from min(T) [0 0 0 0 0 0 0] -5905.83 to max(T) [0 0 0 0 0 0 0] 6117.67

ExecutionTime = 39.87 s  ClockTime = 692 s

Time = 0.66
Courant Number mean: 0.719134 max: 1.38791
diagonal:  Solving for T, Initial residual = 0, Final residual = 0, No Iterations 0
diagonal:  Solving for T, Initial residual = 0, Final residual = 0, No Iterations 0
diagonal:  Solving for T, Initial residual = 0, Final residual = 0, No Iterations 0
diagonal:  Solving for T, Initial residual = 0, Final residual = 0, No Iterations 0
 T goes from min(T) [0 0 0 0 0 0 0] -9033.94 to max(T) [0 0 0 0 0 0 0] 9363.96

ExecutionTime = 40.36 s  ClockTime = 699 s

Time = 0.67
Courant Number mean: 0.718283 max: 1.38538
diagonal:  Solving for T, Initial residual = 0, Final residual = 0, No Iterations 0
diagonal:  Solving for T, Initial residual = 0, Final residual = 0, No Iterations 0
diagonal:  Solving for T, Initial residual = 0, Final residual = 0, No Iterations 0
diagonal:  Solving for T, Initial residual = 0, Final residual = 0, No Iterations 0
 T goes from min(T) [0 0 0 0 0 0 0] -13203.8 to max(T) [0 0 0 0 0 0 0] 13669

ExecutionTime = 40.85 s  ClockTime = 706 s

Time = 0.68
Courant Number mean: 0.717364 max: 1.38281
diagonal:  Solving for T, Initial residual = 0, Final residual = 0, No Iterations 0
diagonal:  Solving for T, Initial residual = 0, Final residual = 0, No Iterations 0
diagonal:  Solving for T, Initial residual = 0, Final residual = 0, No Iterations 0
diagonal:  Solving for T, Initial residual = 0, Final residual = 0, No Iterations 0
 T goes from min(T) [0 0 0 0 0 0 0] -19560.8 to max(T) [0 0 0 0 0 0 0] 19780.6

ExecutionTime = 41.35 s  ClockTime = 714 s

Time = 0.69
Courant Number mean: 0.716503 max: 1.38021
diagonal:  Solving for T, Initial residual = 0, Final residual = 0, No Iterations 0
diagonal:  Solving for T, Initial residual = 0, Final residual = 0, No Iterations 0
diagonal:  Solving for T, Initial residual = 0, Final residual = 0, No Iterations 0
diagonal:  Solving for T, Initial residual = 0, Final residual = 0, No Iterations 0
 T goes from min(T) [0 0 0 0 0 0 0] -30066.4 to max(T) [0 0 0 0 0 0 0] 30581.4

ExecutionTime = 41.86 s  ClockTime = 721 s

Time = 0.7
Courant Number mean: 0.715551 max: 1.37757
diagonal:  Solving for T, Initial residual = 0, Final residual = 0, No Iterations 0
diagonal:  Solving for T, Initial residual = 0, Final residual = 0, No Iterations 0
diagonal:  Solving for T, Initial residual = 0, Final residual = 0, No Iterations 0
diagonal:  Solving for T, Initial residual = 0, Final residual = 0, No Iterations 0
 T goes from min(T) [0 0 0 0 0 0 0] -44399.8 to max(T) [0 0 0 0 0 0 0] 44992.8

ExecutionTime = 42.34 s  ClockTime = 729 s

Time = 0.71
Courant Number mean: 0.714678 max: 1.37489
diagonal:  Solving for T, Initial residual = 0, Final residual = 0, No Iterations 0
diagonal:  Solving for T, Initial residual = 0, Final residual = 0, No Iterations 0
diagonal:  Solving for T, Initial residual = 0, Final residual = 0, No Iterations 0
diagonal:  Solving for T, Initial residual = 0, Final residual = 0, No Iterations 0
 T goes from min(T) [0 0 0 0 0 0 0] -62363.8 to max(T) [0 0 0 0 0 0 0] 62269.5

ExecutionTime = 42.81 s  ClockTime = 735 s

Time = 0.72
Courant Number mean: 0.713694 max: 1.37218
diagonal:  Solving for T, Initial residual = 0, Final residual = 0, No Iterations 0
diagonal:  Solving for T, Initial residual = 0, Final residual = 0, No Iterations 0
diagonal:  Solving for T, Initial residual = 0, Final residual = 0, No Iterations 0
diagonal:  Solving for T, Initial residual = 0, Final residual = 0, No Iterations 0
 T goes from min(T) [0 0 0 0 0 0 0] -93584.6 to max(T) [0 0 0 0 0 0 0] 92039.3

ExecutionTime = 43.32 s  ClockTime = 742 s

Time = 0.73
Courant Number mean: 0.71281 max: 1.36943
diagonal:  Solving for T, Initial residual = 0, Final residual = 0, No Iterations 0
diagonal:  Solving for T, Initial residual = 0, Final residual = 0, No Iterations 0
diagonal:  Solving for T, Initial residual = 0, Final residual = 0, No Iterations 0
diagonal:  Solving for T, Initial residual = 0, Final residual = 0, No Iterations 0
 T goes from min(T) [0 0 0 0 0 0 0] -139253 to max(T) [0 0 0 0 0 0 0] 136471

ExecutionTime = 43.79 s  ClockTime = 748 s

Time = 0.74
Courant Number mean: 0.711792 max: 1.36665
diagonal:  Solving for T, Initial residual = 0, Final residual = 0, No Iterations 0
diagonal:  Solving for T, Initial residual = 0, Final residual = 0, No Iterations 0
diagonal:  Solving for T, Initial residual = 0, Final residual = 0, No Iterations 0
diagonal:  Solving for T, Initial residual = 0, Final residual = 0, No Iterations 0
 T goes from min(T) [0 0 0 0 0 0 0] -196802 to max(T) [0 0 0 0 0 0 0] 190127

ExecutionTime = 44.26 s  ClockTime = 754 s

Time = 0.75
Courant Number mean: 0.710901 max: 1.36382
diagonal:  Solving for T, Initial residual = 0, Final residual = 0, No Iterations 0
diagonal:  Solving for T, Initial residual = 0, Final residual = 0, No Iterations 0
diagonal:  Solving for T, Initial residual = 0, Final residual = 0, No Iterations 0
diagonal:  Solving for T, Initial residual = 0, Final residual = 0, No Iterations 0
 T goes from min(T) [0 0 0 0 0 0 0] -268804 to max(T) [0 0 0 0 0 0 0] 264179

ExecutionTime = 44.75 s  ClockTime = 761 s

Time = 0.76
Courant Number mean: 0.709861 max: 1.36099
diagonal:  Solving for T, Initial residual = 0, Final residual = 0, No Iterations 0
diagonal:  Solving for T, Initial residual = 0, Final residual = 0, No Iterations 0
diagonal:  Solving for T, Initial residual = 0, Final residual = 0, No Iterations 0
diagonal:  Solving for T, Initial residual = 0, Final residual = 0, No Iterations 0
 T goes from min(T) [0 0 0 0 0 0 0] -403141 to max(T) [0 0 0 0 0 0 0] 391764

ExecutionTime = 45.23 s  ClockTime = 767 s

Time = 0.77
Courant Number mean: 0.70895 max: 1.35811
diagonal:  Solving for T, Initial residual = 0, Final residual = 0, No Iterations 0
diagonal:  Solving for T, Initial residual = 0, Final residual = 0, No Iterations 0
diagonal:  Solving for T, Initial residual = 0, Final residual = 0, No Iterations 0
diagonal:  Solving for T, Initial residual = 0, Final residual = 0, No Iterations 0
 T goes from min(T) [0 0 0 0 0 0 0] -573094 to max(T) [0 0 0 0 0 0 0] 560538

ExecutionTime = 45.72 s  ClockTime = 773 s

Time = 0.78
Courant Number mean: 0.707902 max: 1.3552
diagonal:  Solving for T, Initial residual = 0, Final residual = 0, No Iterations 0
diagonal:  Solving for T, Initial residual = 0, Final residual = 0, No Iterations 0
diagonal:  Solving for T, Initial residual = 0, Final residual = 0, No Iterations 0
diagonal:  Solving for T, Initial residual = 0, Final residual = 0, No Iterations 0
 T goes from min(T) [0 0 0 0 0 0 0] -762870 to max(T) [0 0 0 0 0 0 0] 759236

ExecutionTime = 46.18 s  ClockTime = 779 s

Time = 0.79
Courant Number mean: 0.706957 max: 1.35225
diagonal:  Solving for T, Initial residual = 0, Final residual = 0, No Iterations 0
diagonal:  Solving for T, Initial residual = 0, Final residual = 0, No Iterations 0
diagonal:  Solving for T, Initial residual = 0, Final residual = 0, No Iterations 0
diagonal:  Solving for T, Initial residual = 0, Final residual = 0, No Iterations 0
 T goes from min(T) [0 0 0 0 0 0 0] -1.07601e+06 to max(T) [0 0 0 0 0 0 0] 1.1083e+06

ExecutionTime = 46.72 s  ClockTime = 786 s

Time = 0.8
Courant Number mean: 0.705903 max: 1.34928
diagonal:  Solving for T, Initial residual = 0, Final residual = 0, No Iterations 0
diagonal:  Solving for T, Initial residual = 0, Final residual = 0, No Iterations 0
diagonal:  Solving for T, Initial residual = 0, Final residual = 0, No Iterations 0
diagonal:  Solving for T, Initial residual = 0, Final residual = 0, No Iterations 0
 T goes from min(T) [0 0 0 0 0 0 0] -1.53842e+06 to max(T) [0 0 0 0 0 0 0] 1.55869e+06

ExecutionTime = 47.2 s  ClockTime = 793 s

Time = 0.81
Courant Number mean: 0.704926 max: 1.34626
diagonal:  Solving for T, Initial residual = 0, Final residual = 0, No Iterations 0
diagonal:  Solving for T, Initial residual = 0, Final residual = 0, No Iterations 0
diagonal:  Solving for T, Initial residual = 0, Final residual = 0, No Iterations 0
diagonal:  Solving for T, Initial residual = 0, Final residual = 0, No Iterations 0
 T goes from min(T) [0 0 0 0 0 0 0] -2.05692e+06 to max(T) [0 0 0 0 0 0 0] 2.12018e+06

ExecutionTime = 47.66 s  ClockTime = 799 s

Time = 0.82
Courant Number mean: 0.703864 max: 1.34321
diagonal:  Solving for T, Initial residual = 0, Final residual = 0, No Iterations 0
diagonal:  Solving for T, Initial residual = 0, Final residual = 0, No Iterations 0
diagonal:  Solving for T, Initial residual = 0, Final residual = 0, No Iterations 0
diagonal:  Solving for T, Initial residual = 0, Final residual = 0, No Iterations 0
 T goes from min(T) [0 0 0 0 0 0 0] -2.86657e+06 to max(T) [0 0 0 0 0 0 0] 2.91338e+06

ExecutionTime = 48.15 s  ClockTime = 805 s

Time = 0.83
Courant Number mean: 0.702859 max: 1.34012
diagonal:  Solving for T, Initial residual = 0, Final residual = 0, No Iterations 0
diagonal:  Solving for T, Initial residual = 0, Final residual = 0, No Iterations 0
diagonal:  Solving for T, Initial residual = 0, Final residual = 0, No Iterations 0
diagonal:  Solving for T, Initial residual = 0, Final residual = 0, No Iterations 0
 T goes from min(T) [0 0 0 0 0 0 0] -4.06411e+06 to max(T) [0 0 0 0 0 0 0] 4.0646e+06

ExecutionTime = 48.65 s  ClockTime = 812 s

Time = 0.84
Courant Number mean: 0.701793 max: 1.337
diagonal:  Solving for T, Initial residual = 0, Final residual = 0, No Iterations 0
diagonal:  Solving for T, Initial residual = 0, Final residual = 0, No Iterations 0
diagonal:  Solving for T, Initial residual = 0, Final residual = 0, No Iterations 0
diagonal:  Solving for T, Initial residual = 0, Final residual = 0, No Iterations 0
 T goes from min(T) [0 0 0 0 0 0 0] -5.44375e+06 to max(T) [0 0 0 0 0 0 0] 5.46005e+06

ExecutionTime = 49.14 s  ClockTime = 818 s

Time = 0.85
Courant Number mean: 0.700758 max: 1.33385
diagonal:  Solving for T, Initial residual = 0, Final residual = 0, No Iterations 0
diagonal:  Solving for T, Initial residual = 0, Final residual = 0, No Iterations 0
diagonal:  Solving for T, Initial residual = 0, Final residual = 0, No Iterations 0
diagonal:  Solving for T, Initial residual = 0, Final residual = 0, No Iterations 0
 T goes from min(T) [0 0 0 0 0 0 0] -7.25592e+06 to max(T) [0 0 0 0 0 0 0] 7.07207e+06

ExecutionTime = 49.62 s  ClockTime = 824 s

Time = 0.86
Courant Number mean: 0.699685 max: 1.33066
diagonal:  Solving for T, Initial residual = 0, Final residual = 0, No Iterations 0
diagonal:  Solving for T, Initial residual = 0, Final residual = 0, No Iterations 0
diagonal:  Solving for T, Initial residual = 0, Final residual = 0, No Iterations 0
diagonal:  Solving for T, Initial residual = 0, Final residual = 0, No Iterations 0
 T goes from min(T) [0 0 0 0 0 0 0] -1.0246e+07 to max(T) [0 0 0 0 0 0 0] 9.84249e+06

ExecutionTime = 50.11 s  ClockTime = 830 s

Time = 0.87
Courant Number mean: 0.698621 max: 1.32744
diagonal:  Solving for T, Initial residual = 0, Final residual = 0, No Iterations 0
diagonal:  Solving for T, Initial residual = 0, Final residual = 0, No Iterations 0
diagonal:  Solving for T, Initial residual = 0, Final residual = 0, No Iterations 0
diagonal:  Solving for T, Initial residual = 0, Final residual = 0, No Iterations 0
 T goes from min(T) [0 0 0 0 0 0 0] -1.36753e+07 to max(T) [0 0 0 0 0 0 0] 1.32666e+07

ExecutionTime = 50.6 s  ClockTime = 837 s

Time = 0.88
Courant Number mean: 0.697541 max: 1.32418
diagonal:  Solving for T, Initial residual = 0, Final residual = 0, No Iterations 0
diagonal:  Solving for T, Initial residual = 0, Final residual = 0, No Iterations 0
diagonal:  Solving for T, Initial residual = 0, Final residual = 0, No Iterations 0
diagonal:  Solving for T, Initial residual = 0, Final residual = 0, No Iterations 0
 T goes from min(T) [0 0 0 0 0 0 0] -1.70767e+07 to max(T) [0 0 0 0 0 0 0] 1.69459e+07

ExecutionTime = 51.08 s  ClockTime = 843 s

Time = 0.89
Courant Number mean: 0.696448 max: 1.32089
diagonal:  Solving for T, Initial residual = 0, Final residual = 0, No Iterations 0
diagonal:  Solving for T, Initial residual = 0, Final residual = 0, No Iterations 0
diagonal:  Solving for T, Initial residual = 0, Final residual = 0, No Iterations 0
diagonal:  Solving for T, Initial residual = 0, Final residual = 0, No Iterations 0
 T goes from min(T) [0 0 0 0 0 0 0] -2.38583e+07 to max(T) [0 0 0 0 0 0 0] 2.36669e+07

ExecutionTime = 51.56 s  ClockTime = 849 s

Time = 0.9
Courant Number mean: 0.695363 max: 1.31757
diagonal:  Solving for T, Initial residual = 0, Final residual = 0, No Iterations 0
diagonal:  Solving for T, Initial residual = 0, Final residual = 0, No Iterations 0
diagonal:  Solving for T, Initial residual = 0, Final residual = 0, No Iterations 0
diagonal:  Solving for T, Initial residual = 0, Final residual = 0, No Iterations 0
 T goes from min(T) [0 0 0 0 0 0 0] -3.17122e+07 to max(T) [0 0 0 0 0 0 0] 3.20222e+07

ExecutionTime = 52.07 s  ClockTime = 856 s

Time = 0.91
Courant Number mean: 0.694241 max: 1.31421
diagonal:  Solving for T, Initial residual = 0, Final residual = 0, No Iterations 0
diagonal:  Solving for T, Initial residual = 0, Final residual = 0, No Iterations 0
diagonal:  Solving for T, Initial residual = 0, Final residual = 0, No Iterations 0
diagonal:  Solving for T, Initial residual = 0, Final residual = 0, No Iterations 0
 T goes from min(T) [0 0 0 0 0 0 0] -3.91509e+07 to max(T) [0 0 0 0 0 0 0] 4.07107e+07

ExecutionTime = 52.55 s  ClockTime = 862 s

Time = 0.92
Courant Number mean: 0.693151 max: 1.31082
diagonal:  Solving for T, Initial residual = 0, Final residual = 0, No Iterations 0
diagonal:  Solving for T, Initial residual = 0, Final residual = 0, No Iterations 0
diagonal:  Solving for T, Initial residual = 0, Final residual = 0, No Iterations 0
diagonal:  Solving for T, Initial residual = 0, Final residual = 0, No Iterations 0
 T goes from min(T) [0 0 0 0 0 0 0] -5.11775e+07 to max(T) [0 0 0 0 0 0 0] 5.30311e+07

ExecutionTime = 53.12 s  ClockTime = 870 s

Time = 0.93
Courant Number mean: 0.692003 max: 1.30739
diagonal:  Solving for T, Initial residual = 0, Final residual = 0, No Iterations 0
diagonal:  Solving for T, Initial residual = 0, Final residual = 0, No Iterations 0
diagonal:  Solving for T, Initial residual = 0, Final residual = 0, No Iterations 0
diagonal:  Solving for T, Initial residual = 0, Final residual = 0, No Iterations 0
 T goes from min(T) [0 0 0 0 0 0 0] -6.89319e+07 to max(T) [0 0 0 0 0 0 0] 7.1366e+07

ExecutionTime = 53.61 s  ClockTime = 876 s

Time = 0.94
Courant Number mean: 0.690909 max: 1.30393
diagonal:  Solving for T, Initial residual = 0, Final residual = 0, No Iterations 0
diagonal:  Solving for T, Initial residual = 0, Final residual = 0, No Iterations 0
diagonal:  Solving for T, Initial residual = 0, Final residual = 0, No Iterations 0
diagonal:  Solving for T, Initial residual = 0, Final residual = 0, No Iterations 0
 T goes from min(T) [0 0 0 0 0 0 0] -8.89961e+07 to max(T) [0 0 0 0 0 0 0] 9.0224e+07

ExecutionTime = 54.09 s  ClockTime = 882 s

Time = 0.95
Courant Number mean: 0.689734 max: 1.30044
diagonal:  Solving for T, Initial residual = 0, Final residual = 0, No Iterations 0
diagonal:  Solving for T, Initial residual = 0, Final residual = 0, No Iterations 0
diagonal:  Solving for T, Initial residual = 0, Final residual = 0, No Iterations 0
diagonal:  Solving for T, Initial residual = 0, Final residual = 0, No Iterations 0
 T goes from min(T) [0 0 0 0 0 0 0] -1.09176e+08 to max(T) [0 0 0 0 0 0 0] 1.09332e+08

ExecutionTime = 54.57 s  ClockTime = 889 s

Time = 0.96
Courant Number mean: 0.68864 max: 1.29692
diagonal:  Solving for T, Initial residual = 0, Final residual = 0, No Iterations 0
diagonal:  Solving for T, Initial residual = 0, Final residual = 0, No Iterations 0
diagonal:  Solving for T, Initial residual = 0, Final residual = 0, No Iterations 0
diagonal:  Solving for T, Initial residual = 0, Final residual = 0, No Iterations 0
 T goes from min(T) [0 0 0 0 0 0 0] -1.47673e+08 to max(T) [0 0 0 0 0 0 0] 1.46402e+08

ExecutionTime = 55.08 s  ClockTime = 895 s

Time = 0.97
Courant Number mean: 0.687444 max: 1.29336
diagonal:  Solving for T, Initial residual = 0, Final residual = 0, No Iterations 0
diagonal:  Solving for T, Initial residual = 0, Final residual = 0, No Iterations 0
diagonal:  Solving for T, Initial residual = 0, Final residual = 0, No Iterations 0
diagonal:  Solving for T, Initial residual = 0, Final residual = 0, No Iterations 0
 T goes from min(T) [0 0 0 0 0 0 0] -1.8934e+08 to max(T) [0 0 0 0 0 0 0] 1.83919e+08

ExecutionTime = 55.57 s  ClockTime = 901 s

Time = 0.98
Courant Number mean: 0.686341 max: 1.28977
diagonal:  Solving for T, Initial residual = 0, Final residual = 0, No Iterations 0
diagonal:  Solving for T, Initial residual = 0, Final residual = 0, No Iterations 0
diagonal:  Solving for T, Initial residual = 0, Final residual = 0, No Iterations 0
diagonal:  Solving for T, Initial residual = 0, Final residual = 0, No Iterations 0
 T goes from min(T) [0 0 0 0 0 0 0] -2.26463e+08 to max(T) [0 0 0 0 0 0 0] 2.19653e+08

ExecutionTime = 56.04 s  ClockTime = 908 s

Time = 0.99
Courant Number mean: 0.685121 max: 1.28615
diagonal:  Solving for T, Initial residual = 0, Final residual = 0, No Iterations 0
diagonal:  Solving for T, Initial residual = 0, Final residual = 0, No Iterations 0
diagonal:  Solving for T, Initial residual = 0, Final residual = 0, No Iterations 0
diagonal:  Solving for T, Initial residual = 0, Final residual = 0, No Iterations 0
 T goes from min(T) [0 0 0 0 0 0 0] -2.90746e+08 to max(T) [0 0 0 0 0 0 0] 2.83504e+08

ExecutionTime = 56.54 s  ClockTime = 914 s

Time = 1
Courant Number mean: 0.684019 max: 1.2825
diagonal:  Solving for T, Initial residual = 0, Final residual = 0, No Iterations 0
diagonal:  Solving for T, Initial residual = 0, Final residual = 0, No Iterations 0
diagonal:  Solving for T, Initial residual = 0, Final residual = 0, No Iterations 0
diagonal:  Solving for T, Initial residual = 0, Final residual = 0, No Iterations 0
 T goes from min(T) [0 0 0 0 0 0 0] -3.70243e+08 to max(T) [0 0 0 0 0 0 0] 3.65927e+08

ExecutionTime = 57.06 s  ClockTime = 921 s

Time = 1.01
Courant Number mean: 0.682782 max: 1.27882
diagonal:  Solving for T, Initial residual = 0, Final residual = 0, No Iterations 0
diagonal:  Solving for T, Initial residual = 0, Final residual = 0, No Iterations 0
diagonal:  Solving for T, Initial residual = 0, Final residual = 0, No Iterations 0
diagonal:  Solving for T, Initial residual = 0, Final residual = 0, No Iterations 0
 T goes from min(T) [0 0 0 0 0 0 0] -4.39242e+08 to max(T) [0 0 0 0 0 0 0] 4.44753e+08

ExecutionTime = 57.6 s  ClockTime = 928 s

Time = 1.02
Courant Number mean: 0.681666 max: 1.27512
diagonal:  Solving for T, Initial residual = 0, Final residual = 0, No Iterations 0
diagonal:  Solving for T, Initial residual = 0, Final residual = 0, No Iterations 0
diagonal:  Solving for T, Initial residual = 0, Final residual = 0, No Iterations 0
diagonal:  Solving for T, Initial residual = 0, Final residual = 0, No Iterations 0
 T goes from min(T) [0 0 0 0 0 0 0] -5.23389e+08 to max(T) [0 0 0 0 0 0 0] 5.40957e+08

ExecutionTime = 58.1 s  ClockTime = 934 s

Time = 1.03
Courant Number mean: 0.680431 max: 1.27138
diagonal:  Solving for T, Initial residual = 0, Final residual = 0, No Iterations 0
diagonal:  Solving for T, Initial residual = 0, Final residual = 0, No Iterations 0
diagonal:  Solving for T, Initial residual = 0, Final residual = 0, No Iterations 0
diagonal:  Solving for T, Initial residual = 0, Final residual = 0, No Iterations 0
 T goes from min(T) [0 0 0 0 0 0 0] -6.68142e+08 to max(T) [0 0 0 0 0 0 0] 6.853e+08

ExecutionTime = 58.58 s  ClockTime = 941 s

Time = 1.04
Courant Number mean: 0.679291 max: 1.26761
diagonal:  Solving for T, Initial residual = 0, Final residual = 0, No Iterations 0
diagonal:  Solving for T, Initial residual = 0, Final residual = 0, No Iterations 0
diagonal:  Solving for T, Initial residual = 0, Final residual = 0, No Iterations 0
diagonal:  Solving for T, Initial residual = 0, Final residual = 0, No Iterations 0
 T goes from min(T) [0 0 0 0 0 0 0] -8.04607e+08 to max(T) [0 0 0 0 0 0 0] 8.25765e+08

ExecutionTime = 59.06 s  ClockTime = 947 s

Time = 1.05
Courant Number mean: 0.678058 max: 1.26381
diagonal:  Solving for T, Initial residual = 0, Final residual = 0, No Iterations 0
diagonal:  Solving for T, Initial residual = 0, Final residual = 0, No Iterations 0
diagonal:  Solving for T, Initial residual = 0, Final residual = 0, No Iterations 0
diagonal:  Solving for T, Initial residual = 0, Final residual = 0, No Iterations 0
 T goes from min(T) [0 0 0 0 0 0 0] -9.766e+08 to max(T) [0 0 0 0 0 0 0] 9.59419e+08

ExecutionTime = 59.54 s  ClockTime = 953 s

Time = 1.06
Courant Number mean: 0.676899 max: 1.25998
diagonal:  Solving for T, Initial residual = 0, Final residual = 0, No Iterations 0
diagonal:  Solving for T, Initial residual = 0, Final residual = 0, No Iterations 0
diagonal:  Solving for T, Initial residual = 0, Final residual = 0, No Iterations 0
diagonal:  Solving for T, Initial residual = 0, Final residual = 0, No Iterations 0
 T goes from min(T) [0 0 0 0 0 0 0] -1.22633e+09 to max(T) [0 0 0 0 0 0 0] 1.17682e+09

ExecutionTime = 60.03 s  ClockTime = 959 s

Time = 1.07
Courant Number mean: 0.675665 max: 1.25612
diagonal:  Solving for T, Initial residual = 0, Final residual = 0, No Iterations 0
diagonal:  Solving for T, Initial residual = 0, Final residual = 0, No Iterations 0
diagonal:  Solving for T, Initial residual = 0, Final residual = 0, No Iterations 0
diagonal:  Solving for T, Initial residual = 0, Final residual = 0, No Iterations 0
 T goes from min(T) [0 0 0 0 0 0 0] -1.44087e+09 to max(T) [0 0 0 0 0 0 0] 1.41916e+09

ExecutionTime = 60.51 s  ClockTime = 966 s

Time = 1.08
Courant Number mean: 0.674484 max: 1.25223
diagonal:  Solving for T, Initial residual = 0, Final residual = 0, No Iterations 0
diagonal:  Solving for T, Initial residual = 0, Final residual = 0, No Iterations 0
diagonal:  Solving for T, Initial residual = 0, Final residual = 0, No Iterations 0
diagonal:  Solving for T, Initial residual = 0, Final residual = 0, No Iterations 0
 T goes from min(T) [0 0 0 0 0 0 0] -1.66836e+09 to max(T) [0 0 0 0 0 0 0] 1.65336e+09

ExecutionTime = 61.08 s  ClockTime = 973 s

Time = 1.09
Courant Number mean: 0.673251 max: 1.2483
diagonal:  Solving for T, Initial residual = 0, Final residual = 0, No Iterations 0
diagonal:  Solving for T, Initial residual = 0, Final residual = 0, No Iterations 0
diagonal:  Solving for T, Initial residual = 0, Final residual = 0, No Iterations 0
diagonal:  Solving for T, Initial residual = 0, Final residual = 0, No Iterations 0
 T goes from min(T) [0 0 0 0 0 0 0] -2.06124e+09 to max(T) [0 0 0 0 0 0 0] 2.07694e+09

ExecutionTime = 61.6 s  ClockTime = 980 s

Time = 1.1
Courant Number mean: 0.672049 max: 1.24434
diagonal:  Solving for T, Initial residual = 0, Final residual = 0, No Iterations 0
diagonal:  Solving for T, Initial residual = 0, Final residual = 0, No Iterations 0
diagonal:  Solving for T, Initial residual = 0, Final residual = 0, No Iterations 0
diagonal:  Solving for T, Initial residual = 0, Final residual = 0, No Iterations 0
 T goes from min(T) [0 0 0 0 0 0 0] -2.38031e+09 to max(T) [0 0 0 0 0 0 0] 2.46393e+09

ExecutionTime = 62.1 s  ClockTime = 986 s

Time = 1.11
Courant Number mean: 0.670818 max: 1.24036
diagonal:  Solving for T, Initial residual = 0, Final residual = 0, No Iterations 0
diagonal:  Solving for T, Initial residual = 0, Final residual = 0, No Iterations 0
diagonal:  Solving for T, Initial residual = 0, Final residual = 0, No Iterations 0
diagonal:  Solving for T, Initial residual = 0, Final residual = 0, No Iterations 0
 T goes from min(T) [0 0 0 0 0 0 0] -2.66581e+09 to max(T) [0 0 0 0 0 0 0] 2.70855e+09

ExecutionTime = 62.59 s  ClockTime = 993 s

Time = 1.12
Courant Number mean: 0.669599 max: 1.23634
diagonal:  Solving for T, Initial residual = 0, Final residual = 0, No Iterations 0
diagonal:  Solving for T, Initial residual = 0, Final residual = 0, No Iterations 0
diagonal:  Solving for T, Initial residual = 0, Final residual = 0, No Iterations 0
diagonal:  Solving for T, Initial residual = 0, Final residual = 0, No Iterations 0
 T goes from min(T) [0 0 0 0 0 0 0] -3.29446e+09 to max(T) [0 0 0 0 0 0 0] 3.35071e+09

ExecutionTime = 63.08 s  ClockTime = 999 s

Time = 1.13
Courant Number mean: 0.668374 max: 1.23229
diagonal:  Solving for T, Initial residual = 0, Final residual = 0, No Iterations 0
diagonal:  Solving for T, Initial residual = 0, Final residual = 0, No Iterations 0
diagonal:  Solving for T, Initial residual = 0, Final residual = 0, No Iterations 0
diagonal:  Solving for T, Initial residual = 0, Final residual = 0, No Iterations 0
 T goes from min(T) [0 0 0 0 0 0 0] -3.91739e+09 to max(T) [0 0 0 0 0 0 0] 3.90481e+09

ExecutionTime = 63.59 s  ClockTime = 1006 s

Time = 1.14
Courant Number mean: 0.667138 max: 1.22821
diagonal:  Solving for T, Initial residual = 0, Final residual = 0, No Iterations 0
diagonal:  Solving for T, Initial residual = 0, Final residual = 0, No Iterations 0
diagonal:  Solving for T, Initial residual = 0, Final residual = 0, No Iterations 0
diagonal:  Solving for T, Initial residual = 0, Final residual = 0, No Iterations 0
 T goes from min(T) [0 0 0 0 0 0 0] -4.35651e+09 to max(T) [0 0 0 0 0 0 0] 4.2092e+09

ExecutionTime = 64.08 s  ClockTime = 1013 s

Time = 1.15
Courant Number mean: 0.665914 max: 1.22411
diagonal:  Solving for T, Initial residual = 0, Final residual = 0, No Iterations 0
diagonal:  Solving for T, Initial residual = 0, Final residual = 0, No Iterations 0
diagonal:  Solving for T, Initial residual = 0, Final residual = 0, No Iterations 0
diagonal:  Solving for T, Initial residual = 0, Final residual = 0, No Iterations 0
 T goes from min(T) [0 0 0 0 0 0 0] -5.07444e+09 to max(T) [0 0 0 0 0 0 0] 4.90296e+09

ExecutionTime = 64.58 s  ClockTime = 1019 s

Time = 1.16
Courant Number mean: 0.664662 max: 1.21997
diagonal:  Solving for T, Initial residual = 0, Final residual = 0, No Iterations 0
diagonal:  Solving for T, Initial residual = 0, Final residual = 0, No Iterations 0
diagonal:  Solving for T, Initial residual = 0, Final residual = 0, No Iterations 0
diagonal:  Solving for T, Initial residual = 0, Final residual = 0, No Iterations 0
 T goes from min(T) [0 0 0 0 0 0 0] -5.93255e+09 to max(T) [0 0 0 0 0 0 0] 5.81562e+09

ExecutionTime = 65.07 s  ClockTime = 1025 s

Time = 1.17
Courant Number mean: 0.663442 max: 1.2158
diagonal:  Solving for T, Initial residual = 0, Final residual = 0, No Iterations 0
diagonal:  Solving for T, Initial residual = 0, Final residual = 0, No Iterations 0
diagonal:  Solving for T, Initial residual = 0, Final residual = 0, No Iterations 0
diagonal:  Solving for T, Initial residual = 0, Final residual = 0, No Iterations 0
 T goes from min(T) [0 0 0 0 0 0 0] -6.4673e+09 to max(T) [0 0 0 0 0 0 0] 6.49641e+09

ExecutionTime = 65.61 s  ClockTime = 1032 s

Time = 1.18
Courant Number mean: 0.662176 max: 1.2116
diagonal:  Solving for T, Initial residual = 0, Final residual = 0, No Iterations 0
diagonal:  Solving for T, Initial residual = 0, Final residual = 0, No Iterations 0
diagonal:  Solving for T, Initial residual = 0, Final residual = 0, No Iterations 0
diagonal:  Solving for T, Initial residual = 0, Final residual = 0, No Iterations 0
 T goes from min(T) [0 0 0 0 0 0 0] -7.03473e+09 to max(T) [0 0 0 0 0 0 0] 7.20178e+09

ExecutionTime = 66.1 s  ClockTime = 1039 s

Time = 1.19
Courant Number mean: 0.660963 max: 1.20737
diagonal:  Solving for T, Initial residual = 0, Final residual = 0, No Iterations 0
diagonal:  Solving for T, Initial residual = 0, Final residual = 0, No Iterations 0
diagonal:  Solving for T, Initial residual = 0, Final residual = 0, No Iterations 0
diagonal:  Solving for T, Initial residual = 0, Final residual = 0, No Iterations 0
 T goes from min(T) [0 0 0 0 0 0 0] -8.17955e+09 to max(T) [0 0 0 0 0 0 0] 8.36289e+09

ExecutionTime = 66.59 s  ClockTime = 1045 s

Time = 1.2
Courant Number mean: 0.659684 max: 1.20312
diagonal:  Solving for T, Initial residual = 0, Final residual = 0, No Iterations 0
diagonal:  Solving for T, Initial residual = 0, Final residual = 0, No Iterations 0
diagonal:  Solving for T, Initial residual = 0, Final residual = 0, No Iterations 0
diagonal:  Solving for T, Initial residual = 0, Final residual = 0, No Iterations 0
 T goes from min(T) [0 0 0 0 0 0 0] -9.0004e+09 to max(T) [0 0 0 0 0 0 0] 9.16422e+09

ExecutionTime = 67.09 s  ClockTime = 1052 s

Time = 1.21
Courant Number mean: 0.658476 max: 1.19883
diagonal:  Solving for T, Initial residual = 0, Final residual = 0, No Iterations 0
diagonal:  Solving for T, Initial residual = 0, Final residual = 0, No Iterations 0
diagonal:  Solving for T, Initial residual = 0, Final residual = 0, No Iterations 0
diagonal:  Solving for T, Initial residual = 0, Final residual = 0, No Iterations 0
 T goes from min(T) [0 0 0 0 0 0 0] -1.0175e+10 to max(T) [0 0 0 0 0 0 0] 9.90009e+09

ExecutionTime = 67.58 s  ClockTime = 1058 s

Time = 1.22
Courant Number mean: 0.657184 max: 1.19452
diagonal:  Solving for T, Initial residual = 0, Final residual = 0, No Iterations 0
diagonal:  Solving for T, Initial residual = 0, Final residual = 0, No Iterations 0
diagonal:  Solving for T, Initial residual = 0, Final residual = 0, No Iterations 0
diagonal:  Solving for T, Initial residual = 0, Final residual = 0, No Iterations 0
 T goes from min(T) [0 0 0 0 0 0 0] -1.15952e+10 to max(T) [0 0 0 0 0 0 0] 1.13329e+10

ExecutionTime = 68.06 s  ClockTime = 1064 s

Time = 1.23
Courant Number mean: 0.655984 max: 1.19018
diagonal:  Solving for T, Initial residual = 0, Final residual = 0, No Iterations 0
diagonal:  Solving for T, Initial residual = 0, Final residual = 0, No Iterations 0
diagonal:  Solving for T, Initial residual = 0, Final residual = 0, No Iterations 0
diagonal:  Solving for T, Initial residual = 0, Final residual = 0, No Iterations 0
 T goes from min(T) [0 0 0 0 0 0 0] -1.2322e+10 to max(T) [0 0 0 0 0 0 0] 1.23939e+10

ExecutionTime = 68.59 s  ClockTime = 1071 s

Time = 1.24
Courant Number mean: 0.654684 max: 1.18581
diagonal:  Solving for T, Initial residual = 0, Final residual = 0, No Iterations 0
diagonal:  Solving for T, Initial residual = 0, Final residual = 0, No Iterations 0
diagonal:  Solving for T, Initial residual = 0, Final residual = 0, No Iterations 0
diagonal:  Solving for T, Initial residual = 0, Final residual = 0, No Iterations 0
 T goes from min(T) [0 0 0 0 0 0 0] -1.3304e+10 to max(T) [0 0 0 0 0 0 0] 1.35139e+10

ExecutionTime = 69.08 s  ClockTime = 1077 s

Time = 1.25
Courant Number mean: 0.653491 max: 1.18141
diagonal:  Solving for T, Initial residual = 0, Final residual = 0, No Iterations 0
diagonal:  Solving for T, Initial residual = 0, Final residual = 0, No Iterations 0
diagonal:  Solving for T, Initial residual = 0, Final residual = 0, No Iterations 0
diagonal:  Solving for T, Initial residual = 0, Final residual = 0, No Iterations 0
 T goes from min(T) [0 0 0 0 0 0 0] -1.47912e+10 to max(T) [0 0 0 0 0 0 0] 1.52908e+10

ExecutionTime = 69.57 s  ClockTime = 1084 s

Time = 1.26
Courant Number mean: 0.65219 max: 1.17699
diagonal:  Solving for T, Initial residual = 0, Final residual = 0, No Iterations 0
diagonal:  Solving for T, Initial residual = 0, Final residual = 0, No Iterations 0
diagonal:  Solving for T, Initial residual = 0, Final residual = 0, No Iterations 0
diagonal:  Solving for T, Initial residual = 0, Final residual = 0, No Iterations 0
 T goes from min(T) [0 0 0 0 0 0 0] -1.60639e+10 to max(T) [0 0 0 0 0 0 0] 1.62383e+10

ExecutionTime = 70.21 s  ClockTime = 1092 s

Time = 1.27
Courant Number mean: 0.650997 max: 1.17255
diagonal:  Solving for T, Initial residual = 0, Final residual = 0, No Iterations 0
diagonal:  Solving for T, Initial residual = 0, Final residual = 0, No Iterations 0
diagonal:  Solving for T, Initial residual = 0, Final residual = 0, No Iterations 0
diagonal:  Solving for T, Initial residual = 0, Final residual = 0, No Iterations 0
 T goes from min(T) [0 0 0 0 0 0 0] -1.67582e+10 to max(T) [0 0 0 0 0 0 0] 1.66296e+10

ExecutionTime = 70.71 s  ClockTime = 1099 s

Time = 1.28
Courant Number mean: 0.649709 max: 1.16808
diagonal:  Solving for T, Initial residual = 0, Final residual = 0, No Iterations 0
diagonal:  Solving for T, Initial residual = 0, Final residual = 0, No Iterations 0
diagonal:  Solving for T, Initial residual = 0, Final residual = 0, No Iterations 0
diagonal:  Solving for T, Initial residual = 0, Final residual = 0, No Iterations 0
 T goes from min(T) [0 0 0 0 0 0 0] -1.88022e+10 to max(T) [0 0 0 0 0 0 0] 1.83851e+10

ExecutionTime = 71.23 s  ClockTime = 1106 s

Time = 1.29
Courant Number mean: 0.648509 max: 1.16358
diagonal:  Solving for T, Initial residual = 0, Final residual = 0, No Iterations 0
diagonal:  Solving for T, Initial residual = 0, Final residual = 0, No Iterations 0
diagonal:  Solving for T, Initial residual = 0, Final residual = 0, No Iterations 0
diagonal:  Solving for T, Initial residual = 0, Final residual = 0, No Iterations 0
 T goes from min(T) [0 0 0 0 0 0 0] -1.98691e+10 to max(T) [0 0 0 0 0 0 0] 1.94308e+10

ExecutionTime = 71.74 s  ClockTime = 1112 s

Time = 1.3
Courant Number mean: 0.647232 max: 1.15905
diagonal:  Solving for T, Initial residual = 0, Final residual = 0, No Iterations 0
diagonal:  Solving for T, Initial residual = 0, Final residual = 0, No Iterations 0
diagonal:  Solving for T, Initial residual = 0, Final residual = 0, No Iterations 0
diagonal:  Solving for T, Initial residual = 0, Final residual = 0, No Iterations 0
 T goes from min(T) [0 0 0 0 0 0 0] -1.9502e+10 to max(T) [0 0 0 0 0 0 0] 1.99281e+10

ExecutionTime = 72.29 s  ClockTime = 1119 s

Time = 1.31
Courant Number mean: 0.646025 max: 1.1545
diagonal:  Solving for T, Initial residual = 0, Final residual = 0, No Iterations 0
diagonal:  Solving for T, Initial residual = 0, Final residual = 0, No Iterations 0
diagonal:  Solving for T, Initial residual = 0, Final residual = 0, No Iterations 0
diagonal:  Solving for T, Initial residual = 0, Final residual = 0, No Iterations 0
 T goes from min(T) [0 0 0 0 0 0 0] -2.14208e+10 to max(T) [0 0 0 0 0 0 0] 2.19012e+10

ExecutionTime = 72.79 s  ClockTime = 1126 s

Time = 1.32
Courant Number mean: 0.644762 max: 1.14992
diagonal:  Solving for T, Initial residual = 0, Final residual = 0, No Iterations 0
diagonal:  Solving for T, Initial residual = 0, Final residual = 0, No Iterations 0
diagonal:  Solving for T, Initial residual = 0, Final residual = 0, No Iterations 0
diagonal:  Solving for T, Initial residual = 0, Final residual = 0, No Iterations 0
 T goes from min(T) [0 0 0 0 0 0 0] -2.26383e+10 to max(T) [0 0 0 0 0 0 0] 2.25067e+10

ExecutionTime = 73.29 s  ClockTime = 1132 s

Time = 1.33
Courant Number mean: 0.64355 max: 1.14531
diagonal:  Solving for T, Initial residual = 0, Final residual = 0, No Iterations 0
diagonal:  Solving for T, Initial residual = 0, Final residual = 0, No Iterations 0
diagonal:  Solving for T, Initial residual = 0, Final residual = 0, No Iterations 0
diagonal:  Solving for T, Initial residual = 0, Final residual = 0, No Iterations 0
 T goes from min(T) [0 0 0 0 0 0 0] -2.34486e+10 to max(T) [0 0 0 0 0 0 0] 2.29705e+10

ExecutionTime = 73.78 s  ClockTime = 1139 s

Time = 1.34
Courant Number mean: 0.642302 max: 1.14068
diagonal:  Solving for T, Initial residual = 0, Final residual = 0, No Iterations 0
diagonal:  Solving for T, Initial residual = 0, Final residual = 0, No Iterations 0
diagonal:  Solving for T, Initial residual = 0, Final residual = 0, No Iterations 0
diagonal:  Solving for T, Initial residual = 0, Final residual = 0, No Iterations 0
 T goes from min(T) [0 0 0 0 0 0 0] -2.53631e+10 to max(T) [0 0 0 0 0 0 0] 2.47977e+10

ExecutionTime = 74.28 s  ClockTime = 1145 s

Time = 1.35
Courant Number mean: 0.641088 max: 1.13602
diagonal:  Solving for T, Initial residual = 0, Final residual = 0, No Iterations 0
diagonal:  Solving for T, Initial residual = 0, Final residual = 0, No Iterations 0
diagonal:  Solving for T, Initial residual = 0, Final residual = 0, No Iterations 0
diagonal:  Solving for T, Initial residual = 0, Final residual = 0, No Iterations 0
 T goes from min(T) [0 0 0 0 0 0 0] -2.57791e+10 to max(T) [0 0 0 0 0 0 0] 2.57664e+10

ExecutionTime = 74.79 s  ClockTime = 1152 s

Time = 1.36
Courant Number mean: 0.639855 max: 1.13133
diagonal:  Solving for T, Initial residual = 0, Final residual = 0, No Iterations 0
diagonal:  Solving for T, Initial residual = 0, Final residual = 0, No Iterations 0
diagonal:  Solving for T, Initial residual = 0, Final residual = 0, No Iterations 0
diagonal:  Solving for T, Initial residual = 0, Final residual = 0, No Iterations 0
 T goes from min(T) [0 0 0 0 0 0 0] -2.50352e+10 to max(T) [0 0 0 0 0 0 0] 2.55455e+10

ExecutionTime = 75.27 s  ClockTime = 1158 s

Time = 1.37
Courant Number mean: 0.638641 max: 1.12662
diagonal:  Solving for T, Initial residual = 0, Final residual = 0, No Iterations 0
diagonal:  Solving for T, Initial residual = 0, Final residual = 0, No Iterations 0
diagonal:  Solving for T, Initial residual = 0, Final residual = 0, No Iterations 0
diagonal:  Solving for T, Initial residual = 0, Final residual = 0, No Iterations 0
 T goes from min(T) [0 0 0 0 0 0 0] -2.66162e+10 to max(T) [0 0 0 0 0 0 0] 2.72256e+10

ExecutionTime = 75.77 s  ClockTime = 1165 s

Time = 1.38
Courant Number mean: 0.637426 max: 1.12188
diagonal:  Solving for T, Initial residual = 0, Final residual = 0, No Iterations 0
diagonal:  Solving for T, Initial residual = 0, Final residual = 0, No Iterations 0
diagonal:  Solving for T, Initial residual = 0, Final residual = 0, No Iterations 0
diagonal:  Solving for T, Initial residual = 0, Final residual = 0, No Iterations 0
 T goes from min(T) [0 0 0 0 0 0 0] -2.71828e+10 to max(T) [0 0 0 0 0 0 0] 2.73026e+10

ExecutionTime = 76.25 s  ClockTime = 1170 s

Time = 1.39
Courant Number mean: 0.636212 max: 1.11711
diagonal:  Solving for T, Initial residual = 0, Final residual = 0, No Iterations 0
diagonal:  Solving for T, Initial residual = 0, Final residual = 0, No Iterations 0
diagonal:  Solving for T, Initial residual = 0, Final residual = 0, No Iterations 0
diagonal:  Solving for T, Initial residual = 0, Final residual = 0, No Iterations 0
 T goes from min(T) [0 0 0 0 0 0 0] -2.6299e+10 to max(T) [0 0 0 0 0 0 0] 2.59039e+10

ExecutionTime = 76.73 s  ClockTime = 1176 s

Time = 1.4
Courant Number mean: 0.635017 max: 1.11232
diagonal:  Solving for T, Initial residual = 0, Final residual = 0, No Iterations 0
diagonal:  Solving for T, Initial residual = 0, Final residual = 0, No Iterations 0
diagonal:  Solving for T, Initial residual = 0, Final residual = 0, No Iterations 0
diagonal:  Solving for T, Initial residual = 0, Final residual = 0, No Iterations 0
 T goes from min(T) [0 0 0 0 0 0 0] -2.73823e+10 to max(T) [0 0 0 0 0 0 0] 2.74844e+10

ExecutionTime = 77.22 s  ClockTime = 1182 s

Time = 1.41
Courant Number mean: 0.633806 max: 1.1075
diagonal:  Solving for T, Initial residual = 0, Final residual = 0, No Iterations 0
diagonal:  Solving for T, Initial residual = 0, Final residual = 0, No Iterations 0
diagonal:  Solving for T, Initial residual = 0, Final residual = 0, No Iterations 0
diagonal:  Solving for T, Initial residual = 0, Final residual = 0, No Iterations 0
 T goes from min(T) [0 0 0 0 0 0 0] -2.66852e+10 to max(T) [0 0 0 0 0 0 0] 2.74562e+10

ExecutionTime = 77.71 s  ClockTime = 1188 s

Time = 1.42
Courant Number mean: 0.632631 max: 1.10266
diagonal:  Solving for T, Initial residual = 0, Final residual = 0, No Iterations 0
diagonal:  Solving for T, Initial residual = 0, Final residual = 0, No Iterations 0
diagonal:  Solving for T, Initial residual = 0, Final residual = 0, No Iterations 0
diagonal:  Solving for T, Initial residual = 0, Final residual = 0, No Iterations 0
 T goes from min(T) [0 0 0 0 0 0 0] -2.69557e+10 to max(T) [0 0 0 0 0 0 0] 2.71198e+10

ExecutionTime = 78.21 s  ClockTime = 1194 s

Time = 1.43
Courant Number mean: 0.631417 max: 1.0978
diagonal:  Solving for T, Initial residual = 0, Final residual = 0, No Iterations 0
diagonal:  Solving for T, Initial residual = 0, Final residual = 0, No Iterations 0
diagonal:  Solving for T, Initial residual = 0, Final residual = 0, No Iterations 0
diagonal:  Solving for T, Initial residual = 0, Final residual = 0, No Iterations 0
 T goes from min(T) [0 0 0 0 0 0 0] -2.78507e+10 to max(T) [0 0 0 0 0 0 0] 2.76144e+10

ExecutionTime = 78.75 s  ClockTime = 1201 s

Time = 1.44
Courant Number mean: 0.630242 max: 1.0929
diagonal:  Solving for T, Initial residual = 0, Final residual = 0, No Iterations 0
diagonal:  Solving for T, Initial residual = 0, Final residual = 0, No Iterations 0
diagonal:  Solving for T, Initial residual = 0, Final residual = 0, No Iterations 0
diagonal:  Solving for T, Initial residual = 0, Final residual = 0, No Iterations 0
 T goes from min(T) [0 0 0 0 0 0 0] -2.71456e+10 to max(T) [0 0 0 0 0 0 0] 2.64739e+10

ExecutionTime = 79.29 s  ClockTime = 1207 s

Time = 1.45
Courant Number mean: 0.629008 max: 1.08799
diagonal:  Solving for T, Initial residual = 0, Final residual = 0, No Iterations 0
diagonal:  Solving for T, Initial residual = 0, Final residual = 0, No Iterations 0
diagonal:  Solving for T, Initial residual = 0, Final residual = 0, No Iterations 0
diagonal:  Solving for T, Initial residual = 0, Final residual = 0, No Iterations 0
 T goes from min(T) [0 0 0 0 0 0 0] -2.53193e+10 to max(T) [0 0 0 0 0 0 0] 2.52394e+10

ExecutionTime = 79.79 s  ClockTime = 1213 s

Time = 1.46
Courant Number mean: 0.62783 max: 1.08305
diagonal:  Solving for T, Initial residual = 0, Final residual = 0, No Iterations 0
diagonal:  Solving for T, Initial residual = 0, Final residual = 0, No Iterations 0
diagonal:  Solving for T, Initial residual = 0, Final residual = 0, No Iterations 0
diagonal:  Solving for T, Initial residual = 0, Final residual = 0, No Iterations 0
 T goes from min(T) [0 0 0 0 0 0 0] -2.52897e+10 to max(T) [0 0 0 0 0 0 0] 2.55538e+10

ExecutionTime = 80.27 s  ClockTime = 1219 s

Time = 1.47
Courant Number mean: 0.626576 max: 1.07808
diagonal:  Solving for T, Initial residual = 0, Final residual = 0, No Iterations 0
diagonal:  Solving for T, Initial residual = 0, Final residual = 0, No Iterations 0
diagonal:  Solving for T, Initial residual = 0, Final residual = 0, No Iterations 0
diagonal:  Solving for T, Initial residual = 0, Final residual = 0, No Iterations 0
 T goes from min(T) [0 0 0 0 0 0 0] -2.39939e+10 to max(T) [0 0 0 0 0 0 0] 2.43302e+10

ExecutionTime = 80.76 s  ClockTime = 1225 s

Time = 1.48
Courant Number mean: 0.625393 max: 1.0731
diagonal:  Solving for T, Initial residual = 0, Final residual = 0, No Iterations 0
diagonal:  Solving for T, Initial residual = 0, Final residual = 0, No Iterations 0
diagonal:  Solving for T, Initial residual = 0, Final residual = 0, No Iterations 0
diagonal:  Solving for T, Initial residual = 0, Final residual = 0, No Iterations 0
 T goes from min(T) [0 0 0 0 0 0 0] -2.39598e+10 to max(T) [0 0 0 0 0 0 0] 2.3536e+10

ExecutionTime = 81.26 s  ClockTime = 1231 s

Time = 1.49
Courant Number mean: 0.62412 max: 1.06808
diagonal:  Solving for T, Initial residual = 0, Final residual = 0, No Iterations 0
diagonal:  Solving for T, Initial residual = 0, Final residual = 0, No Iterations 0
diagonal:  Solving for T, Initial residual = 0, Final residual = 0, No Iterations 0
diagonal:  Solving for T, Initial residual = 0, Final residual = 0, No Iterations 0
 T goes from min(T) [0 0 0 0 0 0 0] -2.3605e+10 to max(T) [0 0 0 0 0 0 0] 2.35269e+10

ExecutionTime = 81.75 s  ClockTime = 1237 s

Time = 1.5
Courant Number mean: 0.622932 max: 1.06305
diagonal:  Solving for T, Initial residual = 0, Final residual = 0, No Iterations 0
diagonal:  Solving for T, Initial residual = 0, Final residual = 0, No Iterations 0
diagonal:  Solving for T, Initial residual = 0, Final residual = 0, No Iterations 0
diagonal:  Solving for T, Initial residual = 0, Final residual = 0, No Iterations 0
 T goes from min(T) [0 0 0 0 0 0 0] -2.17213e+10 to max(T) [0 0 0 0 0 0 0] 2.21473e+10

ExecutionTime = 82.24 s  ClockTime = 1242 s

Time = 1.51
Courant Number mean: 0.621649 max: 1.058
diagonal:  Solving for T, Initial residual = 0, Final residual = 0, No Iterations 0
diagonal:  Solving for T, Initial residual = 0, Final residual = 0, No Iterations 0
diagonal:  Solving for T, Initial residual = 0, Final residual = 0, No Iterations 0
diagonal:  Solving for T, Initial residual = 0, Final residual = 0, No Iterations 0
 T goes from min(T) [0 0 0 0 0 0 0] -2.07411e+10 to max(T) [0 0 0 0 0 0 0] 2.09894e+10

ExecutionTime = 82.75 s  ClockTime = 1249 s

Time = 1.52
Courant Number mean: 0.620449 max: 1.05293
diagonal:  Solving for T, Initial residual = 0, Final residual = 0, No Iterations 0
[...]

ExecutionTime = 293.1 s  ClockTime = 2783 s

Time = 5.63
Courant Number mean: 0.721711 max: 1.39529
diagonal:  Solving for T, Initial residual = 0, Final residual = 0, No Iterations 0
diagonal:  Solving for T, Initial residual = 0, Final residual = 0, No Iterations 0
diagonal:  Solving for T, Initial residual = 0, Final residual = 0, No Iterations 0
diagonal:  Solving for T, Initial residual = 0, Final residual = 0, No Iterations 0
 T goes from min(T) [0 0 0 0 0 0 0] -8.193e+34 to max(T) [0 0 0 0 0 0 0] 7.99482e+34

ExecutionTime = 293.62 s  ClockTime = 2786 s

Time = 5.64
Courant Number mean: 0.720861 max: 1.39287
diagonal:  Solving for T, Initial residual = 0, Final residual = 0, No Iterations 0
diagonal:  Solving for T, Initial residual = 0, Final residual = 0, No Iterations 0
diagonal:  Solving for T, Initial residual = 0, Final residual = 0, No Iterations 0
diagonal:  Solving for T, Initial residual = 0, Final residual = 0, No Iterations 0
 T goes from min(T) [0 0 0 0 0 0 0] -1.27548e+35 to max(T) [0 0 0 0 0 0 0] 1.26046e+35

ExecutionTime = 294.26 s  ClockTime = 2790 s

Time = 5.65
Courant Number mean: 0.720019 max: 1.39041
diagonal:  Solving for T, Initial residual = 0, Final residual = 0, No Iterations 0
diagonal:  Solving for T, Initial residual = 0, Final residual = 0, No Iterations 0
diagonal:  Solving for T, Initial residual = 0, Final residual = 0, No Iterations 0
diagonal:  Solving for T, Initial residual = 0, Final residual = 0, No Iterations 0
 T goes from min(T) [0 0 0 0 0 0 0] -1.91552e+35 to max(T) [0 0 0 0 0 0 0] 1.87287e+35

ExecutionTime = 294.9 s  ClockTime = 2794 s

Time = 5.66
Courant Number mean: 0.719134 max: 1.38791
diagonal:  Solving for T, Initial residual = 0, Final residual = 0, No Iterations 0
diagonal:  Solving for T, Initial residual = 0, Final residual = 0, No Iterations 0
diagonal:  Solving for T, Initial residual = 0, Final residual = 0, No Iterations 0
diagonal:  Solving for T, Initial residual = 0, Final residual = 0, No Iterations 0
 T goes from min(T) [0 0 0 0 0 0 0] -2.70552e+35 to max(T) [0 0 0 0 0 0 0] 2.58533e+35

ExecutionTime = 295.41 s  ClockTime = 2797 s

Time = 5.67
Courant Number mean: 0.718283 max: 1.38538
diagonal:  Solving for T, Initial residual = 0, Final residual = 0, No Iterations 0
diagonal:  Solving for T, Initial residual = 0, Final residual = 0, No Iterations 0
diagonal:  Solving for T, Initial residual = 0, Final residual = 0, No Iterations 0
diagonal:  Solving for T, Initial residual = 0, Final residual = 0, No Iterations 0
 T goes from min(T) [0 0 0 0 0 0 0] -4.01156e+35 to max(T) [0 0 0 0 0 0 0] 3.97525e+35

ExecutionTime = 295.92 s  ClockTime = 2800 s

Time = 5.68
Courant Number mean: 0.717364 max: 1.38281
diagonal:  Solving for T, Initial residual = 0, Final residual = 0, No Iterations 0
diagonal:  Solving for T, Initial residual = 0, Final residual = 0, No Iterations 0
diagonal:  Solving for T, Initial residual = 0, Final residual = 0, No Iterations 0
diagonal:  Solving for T, Initial residual = 0, Final residual = 0, No Iterations 0
 T goes from min(T) [0 0 0 0 0 0 0] -6.02734e+35 to max(T) [0 0 0 0 0 0 0] 5.90928e+35

ExecutionTime = 296.45 s  ClockTime = 2803 s

Time = 5.69
Courant Number mean: 0.716503 max: 1.38021
diagonal:  Solving for T, Initial residual = 0, Final residual = 0, No Iterations 0
diagonal:  Solving for T, Initial residual = 0, Final residual = 0, No Iterations 0
diagonal:  Solving for T, Initial residual = 0, Final residual = 0, No Iterations 0
diagonal:  Solving for T, Initial residual = 0, Final residual = 0, No Iterations 0
 T goes from min(T) [0 0 0 0 0 0 0] -8.54119e+35 to max(T) [0 0 0 0 0 0 0] 8.41619e+35

ExecutionTime = 297.02 s  ClockTime = 2807 s

Time = 5.7
Courant Number mean: 0.715551 max: 1.37757
diagonal:  Solving for T, Initial residual = 0, Final residual = 0, No Iterations 0
diagonal:  Solving for T, Initial residual = 0, Final residual = 0, No Iterations 0
diagonal:  Solving for T, Initial residual = 0, Final residual = 0, No Iterations 0
diagonal:  Solving for T, Initial residual = 0, Final residual = 0, No Iterations 0
 T goes from min(T) [0 0 0 0 0 0 0] -1.19095e+36 to max(T) [0 0 0 0 0 0 0] 1.23074e+36

ExecutionTime = 297.58 s  ClockTime = 2810 s

Time = 5.71
Courant Number mean: 0.714678 max: 1.37489
diagonal:  Solving for T, Initial residual = 0, Final residual = 0, No Iterations 0
diagonal:  Solving for T, Initial residual = 0, Final residual = 0, No Iterations 0
diagonal:  Solving for T, Initial residual = 0, Final residual = 0, No Iterations 0
diagonal:  Solving for T, Initial residual = 0, Final residual = 0, No Iterations 0
 T goes from min(T) [0 0 0 0 0 0 0] -1.77279e+36 to max(T) [0 0 0 0 0 0 0] 1.82282e+36

ExecutionTime = 298.06 s  ClockTime = 2813 s

Time = 5.72
Courant Number mean: 0.713694 max: 1.37218
diagonal:  Solving for T, Initial residual = 0, Final residual = 0, No Iterations 0
diagonal:  Solving for T, Initial residual = 0, Final residual = 0, No Iterations 0
diagonal:  Solving for T, Initial residual = 0, Final residual = 0, No Iterations 0
diagonal:  Solving for T, Initial residual = 0, Final residual = 0, No Iterations 0
 T goes from min(T) [0 0 0 0 0 0 0] -2.51957e+36 to max(T) [0 0 0 0 0 0 0] 2.57943e+36

ExecutionTime = 298.62 s  ClockTime = 2817 s

Time = 5.73
Courant Number mean: 0.71281 max: 1.36943
diagonal:  Solving for T, Initial residual = 0, Final residual = 0, No Iterations 0
diagonal:  Solving for T, Initial residual = 0, Final residual = 0, No Iterations 0
diagonal:  Solving for T, Initial residual = 0, Final residual = 0, No Iterations 0
diagonal:  Solving for T, Initial residual = 0, Final residual = 0, No Iterations 0
 T goes from min(T) [0 0 0 0 0 0 0] -3.50555e+36 to max(T) [0 0 0 0 0 0 0] 3.56816e+36

ExecutionTime = 299.21 s  ClockTime = 2820 s

Time = 5.74
Courant Number mean: 0.711792 max: 1.36665
diagonal:  Solving for T, Initial residual = 0, Final residual = 0, No Iterations 0
diagonal:  Solving for T, Initial residual = 0, Final residual = 0, No Iterations 0
diagonal:  Solving for T, Initial residual = 0, Final residual = 0, No Iterations 0
diagonal:  Solving for T, Initial residual = 0, Final residual = 0, No Iterations 0
 T goes from min(T) [0 0 0 0 0 0 0] -5.24006e+36 to max(T) [0 0 0 0 0 0 0] 5.26636e+36

ExecutionTime = 299.82 s  ClockTime = 2824 s

Time = 5.75
Courant Number mean: 0.710901 max: 1.36382
diagonal:  Solving for T, Initial residual = 0, Final residual = 0, No Iterations 0
diagonal:  Solving for T, Initial residual = 0, Final residual = 0, No Iterations 0
diagonal:  Solving for T, Initial residual = 0, Final residual = 0, No Iterations 0
diagonal:  Solving for T, Initial residual = 0, Final residual = 0, No Iterations 0
 T goes from min(T) [0 0 0 0 0 0 0] -7.43328e+36 to max(T) [0 0 0 0 0 0 0] 7.38399e+36

ExecutionTime = 300.43 s  ClockTime = 2827 s

Time = 5.76
Courant Number mean: 0.709861 max: 1.36099
diagonal:  Solving for T, Initial residual = 0, Final residual = 0, No Iterations 0
diagonal:  Solving for T, Initial residual = 0, Final residual = 0, No Iterations 0
diagonal:  Solving for T, Initial residual = 0, Final residual = 0, No Iterations 0
diagonal:  Solving for T, Initial residual = 0, Final residual = 0, No Iterations 0
 T goes from min(T) [0 0 0 0 0 0 0] -9.91999e+36 to max(T) [0 0 0 0 0 0 0] 9.97145e+36

ExecutionTime = 300.94 s  ClockTime = 2830 s

Time = 5.77
Courant Number mean: 0.70895 max: 1.35811
diagonal:  Solving for T, Initial residual = 0, Final residual = 0, No Iterations 0
diagonal:  Solving for T, Initial residual = 0, Final residual = 0, No Iterations 0
diagonal:  Solving for T, Initial residual = 0, Final residual = 0, No Iterations 0
diagonal:  Solving for T, Initial residual = 0, Final residual = 0, No Iterations 0
 T goes from min(T) [0 0 0 0 0 0 0] -1.47583e+37 to max(T) [0 0 0 0 0 0 0] 1.42134e+37

ExecutionTime = 301.44 s  ClockTime = 2833 s

Time = 5.78
Courant Number mean: 0.707902 max: 1.3552
diagonal:  Solving for T, Initial residual = 0, Final residual = 0, No Iterations 0
diagonal:  Solving for T, Initial residual = 0, Final residual = 0, No Iterations 0
diagonal:  Solving for T, Initial residual = 0, Final residual = 0, No Iterations 0
diagonal:  Solving for T, Initial residual = 0, Final residual = 0, No Iterations 0
 T goes from min(T) [0 0 0 0 0 0 0] -2.08383e+37 to max(T) [0 0 0 0 0 0 0] 2.00854e+37

ExecutionTime = 301.95 s  ClockTime = 2836 s

Time = 5.79
Courant Number mean: 0.706957 max: 1.35225
diagonal:  Solving for T, Initial residual = 0, Final residual = 0, No Iterations 0
diagonal:  Solving for T, Initial residual = 0, Final residual = 0, No Iterations 0
diagonal:  Solving for T, Initial residual = 0, Final residual = 0, No Iterations 0
diagonal:  Solving for T, Initial residual = 0, Final residual = 0, No Iterations 0
 T goes from min(T) [0 0 0 0 0 0 0] -2.74513e+37 to max(T) [0 0 0 0 0 0 0] 2.71872e+37

ExecutionTime = 302.45 s  ClockTime = 2839 s

Time = 5.8
Courant Number mean: 0.705903 max: 1.34928
diagonal:  Solving for T, Initial residual = 0, Final residual = 0, No Iterations 0
diagonal:  Solving for T, Initial residual = 0, Final residual = 0, No Iterations 0
diagonal:  Solving for T, Initial residual = 0, Final residual = 0, No Iterations 0
diagonal:  Solving for T, Initial residual = 0, Final residual = 0, No Iterations 0
 T goes from min(T) [0 0 0 0 0 0 0] -3.87916e+37 to max(T) [0 0 0 0 0 0 0] 3.84173e+37

ExecutionTime = 302.95 s  ClockTime = 2842 s

Time = 5.81
Courant Number mean: 0.704926 max: 1.34626
diagonal:  Solving for T, Initial residual = 0, Final residual = 0, No Iterations 0
diagonal:  Solving for T, Initial residual = 0, Final residual = 0, No Iterations 0
diagonal:  Solving for T, Initial residual = 0, Final residual = 0, No Iterations 0
diagonal:  Solving for T, Initial residual = 0, Final residual = 0, No Iterations 0
 T goes from min(T) [0 0 0 0 0 0 0] -5.45203e+37 to max(T) [0 0 0 0 0 0 0] 5.47851e+37

ExecutionTime = 303.46 s  ClockTime = 2846 s

Time = 5.82
Courant Number mean: 0.703864 max: 1.34321
diagonal:  Solving for T, Initial residual = 0, Final residual = 0, No Iterations 0
diagonal:  Solving for T, Initial residual = 0, Final residual = 0, No Iterations 0
diagonal:  Solving for T, Initial residual = 0, Final residual = 0, No Iterations 0
diagonal:  Solving for T, Initial residual = 0, Final residual = 0, No Iterations 0
 T goes from min(T) [0 0 0 0 0 0 0] -7.15266e+37 to max(T) [0 0 0 0 0 0 0] 7.3752e+37

ExecutionTime = 303.96 s  ClockTime = 2848 s

Time = 5.83
Courant Number mean: 0.702859 max: 1.34012
diagonal:  Solving for T, Initial residual = 0, Final residual = 0, No Iterations 0
diagonal:  Solving for T, Initial residual = 0, Final residual = 0, No Iterations 0
diagonal:  Solving for T, Initial residual = 0, Final residual = 0, No Iterations 0
diagonal:  Solving for T, Initial residual = 0, Final residual = 0, No Iterations 0
 T goes from min(T) [0 0 0 0 0 0 0] -9.48447e+37 to max(T) [0 0 0 0 0 0 0] 9.82439e+37

ExecutionTime = 304.45 s  ClockTime = 2851 s

Time = 5.84
Courant Number mean: 0.701793 max: 1.337
diagonal:  Solving for T, Initial residual = 0, Final residual = 0, No Iterations 0
diagonal:  Solving for T, Initial residual = 0, Final residual = 0, No Iterations 0
diagonal:  Solving for T, Initial residual = 0, Final residual = 0, No Iterations 0
diagonal:  Solving for T, Initial residual = 0, Final residual = 0, No Iterations 0
 T goes from min(T) [0 0 0 0 0 0 0] -1.33899e+38 to max(T) [0 0 0 0 0 0 0] 1.39332e+38

ExecutionTime = 304.96 s  ClockTime = 2855 s

Time = 5.85
Courant Number mean: 0.700758 max: 1.33385
diagonal:  Solving for T, Initial residual = 0, Final residual = 0, No Iterations 0
diagonal:  Solving for T, Initial residual = 0, Final residual = 0, No Iterations 0
diagonal:  Solving for T, Initial residual = 0, Final residual = 0, No Iterations 0
diagonal:  Solving for T, Initial residual = 0, Final residual = 0, No Iterations 0
 T goes from min(T) [0 0 0 0 0 0 0] -1.82453e+38 to max(T) [0 0 0 0 0 0 0] 1.86493e+38

ExecutionTime = 305.46 s  ClockTime = 2858 s

Time = 5.86
Courant Number mean: 0.699685 max: 1.33066
diagonal:  Solving for T, Initial residual = 0, Final residual = 0, No Iterations 0
diagonal:  Solving for T, Initial residual = 0, Final residual = 0, No Iterations 0
diagonal:  Solving for T, Initial residual = 0, Final residual = 0, No Iterations 0
diagonal:  Solving for T, Initial residual = 0, Final residual = 0, No Iterations 0
 T goes from min(T) [0 0 0 0 0 0 0] -2.33157e+38 to max(T) [0 0 0 0 0 0 0] 2.33277e+38

ExecutionTime = 306.02 s  ClockTime = 2861 s

Time = 5.87
Courant Number mean: 0.698621 max: 1.32744
diagonal:  Solving for T, Initial residual = 0, Final residual = 0, No Iterations 0
diagonal:  Solving for T, Initial residual = 0, Final residual = 0, No Iterations 0
diagonal:  Solving for T, Initial residual = 0, Final residual = 0, No Iterations 0
diagonal:  Solving for T, Initial residual = 0, Final residual = 0, No Iterations 0
 T goes from min(T) [0 0 0 0 0 0 0] -3.30701e+38 to max(T) [0 0 0 0 0 0 0] 3.29287e+38

ExecutionTime = 306.54 s  ClockTime = 2864 s

Time = 5.88
Courant Number mean: 0.697541 max: 1.32418
diagonal:  Solving for T, Initial residual = 0, Final residual = 0, No Iterations 0
diagonal:  Solving for T, Initial residual = 0, Final residual = 0, No Iterations 0
diagonal:  Solving for T, Initial residual = 0, Final residual = 0, No Iterations 0
diagonal:  Solving for T, Initial residual = 0, Final residual = 0, No Iterations 0
 T goes from min(T) [0 0 0 0 0 0 0] -4.47542e+38 to max(T) [0 0 0 0 0 0 0] 4.38136e+38

ExecutionTime = 307.06 s  ClockTime = 2867 s

Time = 5.89
Courant Number mean: 0.696448 max: 1.32089
diagonal:  Solving for T, Initial residual = 0, Final residual = 0, No Iterations 0
diagonal:  Solving for T, Initial residual = 0, Final residual = 0, No Iterations 0
diagonal:  Solving for T, Initial residual = 0, Final residual = 0, No Iterations 0
diagonal:  Solving for T, Initial residual = 0, Final residual = 0, No Iterations 0
 T goes from min(T) [0 0 0 0 0 0 0] -5.68128e+38 to max(T) [0 0 0 0 0 0 0] 5.44309e+38

ExecutionTime = 307.56 s  ClockTime = 2870 s

Time = 5.9
Courant Number mean: 0.695363 max: 1.31757
diagonal:  Solving for T, Initial residual = 0, Final residual = 0, No Iterations 0
diagonal:  Solving for T, Initial residual = 0, Final residual = 0, No Iterations 0
diagonal:  Solving for T, Initial residual = 0, Final residual = 0, No Iterations 0
diagonal:  Solving for T, Initial residual = 0, Final residual = 0, No Iterations 0
 T goes from min(T) [0 0 0 0 0 0 0] -7.57563e+38 to max(T) [0 0 0 0 0 0 0] 7.34668e+38

ExecutionTime = 308.06 s  ClockTime = 2873 s

Time = 5.91
Courant Number mean: 0.694241 max: 1.31421
diagonal:  Solving for T, Initial residual = 0, Final residual = 0, No Iterations 0
diagonal:  Solving for T, Initial residual = 0, Final residual = 0, No Iterations 0
diagonal:  Solving for T, Initial residual = 0, Final residual = 0, No Iterations 0
diagonal:  Solving for T, Initial residual = 0, Final residual = 0, No Iterations 0
 T goes from min(T) [0 0 0 0 0 0 0] -1.01874e+39 to max(T) [0 0 0 0 0 0 0] 9.9787e+38

ExecutionTime = 308.56 s  ClockTime = 2876 s

Time = 5.92
Courant Number mean: 0.693151 max: 1.31082
diagonal:  Solving for T, Initial residual = 0, Final residual = 0, No Iterations 0
diagonal:  Solving for T, Initial residual = 0, Final residual = 0, No Iterations 0
diagonal:  Solving for T, Initial residual = 0, Final residual = 0, No Iterations 0
diagonal:  Solving for T, Initial residual = 0, Final residual = 0, No Iterations 0
 T goes from min(T) [0 0 0 0 0 0 0] -1.28392e+39 to max(T) [0 0 0 0 0 0 0] 1.28365e+39

ExecutionTime = 309.06 s  ClockTime = 2879 s

Time = 5.93
Courant Number mean: 0.692003 max: 1.30739
diagonal:  Solving for T, Initial residual = 0, Final residual = 0, No Iterations 0
diagonal:  Solving for T, Initial residual = 0, Final residual = 0, No Iterations 0
diagonal:  Solving for T, Initial residual = 0, Final residual = 0, No Iterations 0
diagonal:  Solving for T, Initial residual = 0, Final residual = 0, No Iterations 0
 T goes from min(T) [0 0 0 0 0 0 0] -1.60256e+39 to max(T) [0 0 0 0 0 0 0] 1.62692e+39

ExecutionTime = 309.55 s  ClockTime = 2882 s

Time = 5.94
Courant Number mean: 0.690909 max: 1.30393
diagonal:  Solving for T, Initial residual = 0, Final residual = 0, No Iterations 0
diagonal:  Solving for T, Initial residual = 0, Final residual = 0, No Iterations 0
diagonal:  Solving for T, Initial residual = 0, Final residual = 0, No Iterations 0
diagonal:  Solving for T, Initial residual = 0, Final residual = 0, No Iterations 0
 T goes from min(T) [0 0 0 0 0 0 0] -2.14265e+39 to max(T) [0 0 0 0 0 0 0] 2.19687e+39

ExecutionTime = 310.04 s  ClockTime = 2885 s

Time = 5.95
Courant Number mean: 0.689734 max: 1.30044
diagonal:  Solving for T, Initial residual = 0, Final residual = 0, No Iterations 0
diagonal:  Solving for T, Initial residual = 0, Final residual = 0, No Iterations 0
diagonal:  Solving for T, Initial residual = 0, Final residual = 0, No Iterations 0
diagonal:  Solving for T, Initial residual = 0, Final residual = 0, No Iterations 0
 T goes from min(T) [0 0 0 0 0 0 0] -2.6943e+39 to max(T) [0 0 0 0 0 0 0] 2.80424e+39

ExecutionTime = 310.53 s  ClockTime = 2888 s

Time = 5.96
Courant Number mean: 0.68864 max: 1.29692
diagonal:  Solving for T, Initial residual = 0, Final residual = 0, No Iterations 0
diagonal:  Solving for T, Initial residual = 0, Final residual = 0, No Iterations 0
diagonal:  Solving for T, Initial residual = 0, Final residual = 0, No Iterations 0
diagonal:  Solving for T, Initial residual = 0, Final residual = 0, No Iterations 0
 T goes from min(T) [0 0 0 0 0 0 0] -3.30868e+39 to max(T) [0 0 0 0 0 0 0] 3.33024e+39

ExecutionTime = 311.02 s  ClockTime = 2891 s

Time = 5.97
Courant Number mean: 0.687444 max: 1.29336
diagonal:  Solving for T, Initial residual = 0, Final residual = 0, No Iterations 0
diagonal:  Solving for T, Initial residual = 0, Final residual = 0, No Iterations 0
diagonal:  Solving for T, Initial residual = 0, Final residual = 0, No Iterations 0
diagonal:  Solving for T, Initial residual = 0, Final residual = 0, No Iterations 0
 T goes from min(T) [0 0 0 0 0 0 0] -4.42186e+39 to max(T) [0 0 0 0 0 0 0] 4.45857e+39

ExecutionTime = 311.53 s  ClockTime = 2894 s

Time = 5.98
Courant Number mean: 0.686341 max: 1.28977
diagonal:  Solving for T, Initial residual = 0, Final residual = 0, No Iterations 0
diagonal:  Solving for T, Initial residual = 0, Final residual = 0, No Iterations 0
diagonal:  Solving for T, Initial residual = 0, Final residual = 0, No Iterations 0
diagonal:  Solving for T, Initial residual = 0, Final residual = 0, No Iterations 0
 T goes from min(T) [0 0 0 0 0 0 0] -5.67828e+39 to max(T) [0 0 0 0 0 0 0] 5.64815e+39

ExecutionTime = 312.03 s  ClockTime = 2897 s

Time = 5.99
Courant Number mean: 0.685121 max: 1.28615
diagonal:  Solving for T, Initial residual = 0, Final residual = 0, No Iterations 0
diagonal:  Solving for T, Initial residual = 0, Final residual = 0, No Iterations 0
diagonal:  Solving for T, Initial residual = 0, Final residual = 0, No Iterations 0
diagonal:  Solving for T, Initial residual = 0, Final residual = 0, No Iterations 0
 T goes from min(T) [0 0 0 0 0 0 0] -6.84686e+39 to max(T) [0 0 0 0 0 0 0] 6.64305e+39

ExecutionTime = 312.52 s  ClockTime = 2900 s

Time = 6
Courant Number mean: 0.684019 max: 1.2825
diagonal:  Solving for T, Initial residual = 0, Final residual = 0, No Iterations 0
diagonal:  Solving for T, Initial residual = 0, Final residual = 0, No Iterations 0
diagonal:  Solving for T, Initial residual = 0, Final residual = 0, No Iterations 0
diagonal:  Solving for T, Initial residual = 0, Final residual = 0, No Iterations 0
 T goes from min(T) [0 0 0 0 0 0 0] -8.78316e+39 to max(T) [0 0 0 0 0 0 0] 8.65888e+39

ExecutionTime = 313.1 s  ClockTime = 2903 s

End

