/*---------------------------------------------------------------------------*\
| =========                 |                                                 |
| \\      /  F ield         | OpenFOAM: The Open Source CFD Toolbox           |
|  \\    /   O peration     | Version:  dev                                   |
|   \\  /    A nd           | Web:      www.OpenFOAM.org                      |
|    \\/     M anipulation  |                                                 |
\*---------------------------------------------------------------------------*/
Build  : dev-90f39e0d894d
Exec   : scalarDeformationWithGhosts implicit -case nonOrthogW/120x60/c10_implicit
Date   : May 23 2017
Time   : 20:31:40
Host   : "sws02hw.private.rdg.ac.uk"
PID    : 22957
Case   : nonOrthogW/120x60/c10_implicit
nProcs : 1
sigFpe : Enabling floating point exception trapping (FOAM_SIGFPE).
fileModificationChecking : Monitoring run-time modified files using timeStampMaster (fileModificationSkew 10)
allowSystemOperations : Allowing user-supplied system call operations

// * * * * * * * * * * * * * * * * * * * * * * * * * * * * * * * * * * * * * //
Create time

Create mesh for time = 0

Reading field T

Reading fields phi (compulsory), U and Uf (optional)

Calculating owner stencils
Calculating neighbour stencils

Calculating scalar transport

Courant Number mean: 4.66051 max: 9.65781
Time = 0.1
Courant Number mean: 4.63323 max: 9.89875
DILUPBiCG:  Solving for T, Initial residual = 0.132077, Final residual = 4.0852e-09, No Iterations 14
DILUPBiCG:  Solving for T, Initial residual = 0.0124304, Final residual = 8.14497e-10, No Iterations 13
DILUPBiCG:  Solving for T, Initial residual = 0.00127453, Final residual = 9.98952e-10, No Iterations 12
DILUPBiCG:  Solving for T, Initial residual = 0.000277209, Final residual = 2.40859e-09, No Iterations 9
 T goes from min(T) [0 0 0 0 0 0 0] -0.00367333 to max(T) [0 0 0 0 0 0 0] 0.97037

ExecutionTime = 2.18 s  ClockTime = 42 s

Time = 0.2
Courant Number mean: 4.55401 max: 10.0852
DILUPBiCG:  Solving for T, Initial residual = 0.133059, Final residual = 7.93274e-09, No Iterations 13
DILUPBiCG:  Solving for T, Initial residual = 0.0131822, Final residual = 2.30955e-09, No Iterations 12
DILUPBiCG:  Solving for T, Initial residual = 0.00156407, Final residual = 5.88742e-09, No Iterations 11
DILUPBiCG:  Solving for T, Initial residual = 0.000400036, Final residual = 4.19283e-09, No Iterations 9
 T goes from min(T) [0 0 0 0 0 0 0] -0.0168126 to max(T) [0 0 0 0 0 0 0] 0.987615

ExecutionTime = 2.32 s  ClockTime = 45 s

Time = 0.3
Courant Number mean: 4.44076 max: 10.2311
DILUPBiCG:  Solving for T, Initial residual = 0.134632, Final residual = 8.03751e-09, No Iterations 14
DILUPBiCG:  Solving for T, Initial residual = 0.0144641, Final residual = 8.76921e-09, No Iterations 11
DILUPBiCG:  Solving for T, Initial residual = 0.0020173, Final residual = 7.16437e-09, No Iterations 10
DILUPBiCG:  Solving for T, Initial residual = 0.000580503, Final residual = 4.84832e-09, No Iterations 9
 T goes from min(T) [0 0 0 0 0 0 0] -0.0370613 to max(T) [0 0 0 0 0 0 0] 0.997343

ExecutionTime = 2.46 s  ClockTime = 47 s

Time = 0.4
Courant Number mean: 4.30648 max: 10.3181
DILUPBiCG:  Solving for T, Initial residual = 0.135874, Final residual = 3.5521e-10, No Iterations 16
DILUPBiCG:  Solving for T, Initial residual = 0.0159634, Final residual = 3.62659e-09, No Iterations 12
DILUPBiCG:  Solving for T, Initial residual = 0.00251307, Final residual = 9.03419e-09, No Iterations 10
DILUPBiCG:  Solving for T, Initial residual = 0.000740526, Final residual = 8.92096e-09, No Iterations 9
 T goes from min(T) [0 0 0 0 0 0 0] -0.0613818 to max(T) [0 0 0 0 0 0 0] 1.01005

ExecutionTime = 2.61 s  ClockTime = 50 s

Time = 0.5
Courant Number mean: 4.15666 max: 10.3441
DILUPBiCG:  Solving for T, Initial residual = 0.13691, Final residual = 4.49465e-09, No Iterations 15
DILUPBiCG:  Solving for T, Initial residual = 0.0175101, Final residual = 2.41358e-09, No Iterations 12
DILUPBiCG:  Solving for T, Initial residual = 0.00293503, Final residual = 9.27966e-09, No Iterations 10
DILUPBiCG:  Solving for T, Initial residual = 0.00086068, Final residual = 6.2635e-09, No Iterations 9
 T goes from min(T) [0 0 0 0 0 0 0] -0.08547 to max(T) [0 0 0 0 0 0 0] 1.01829

ExecutionTime = 2.75 s  ClockTime = 53 s

Time = 0.6
Courant Number mean: 3.99605 max: 10.3186
DILUPBiCG:  Solving for T, Initial residual = 0.138839, Final residual = 1.47832e-09, No Iterations 15
DILUPBiCG:  Solving for T, Initial residual = 0.0191401, Final residual = 3.47297e-09, No Iterations 12
DILUPBiCG:  Solving for T, Initial residual = 0.00330703, Final residual = 8.7072e-09, No Iterations 10
DILUPBiCG:  Solving for T, Initial residual = 0.000968963, Final residual = 8.10635e-09, No Iterations 9
 T goes from min(T) [0 0 0 0 0 0 0] -0.106962 to max(T) [0 0 0 0 0 0 0] 1.00978

ExecutionTime = 2.89 s  ClockTime = 55 s

Time = 0.7
Courant Number mean: 3.82882 max: 10.2299
DILUPBiCG:  Solving for T, Initial residual = 0.141035, Final residual = 7.26164e-09, No Iterations 13
DILUPBiCG:  Solving for T, Initial residual = 0.0209237, Final residual = 5.77876e-09, No Iterations 12
DILUPBiCG:  Solving for T, Initial residual = 0.00382236, Final residual = 8.46476e-09, No Iterations 10
DILUPBiCG:  Solving for T, Initial residual = 0.00114872, Final residual = 6.62916e-09, No Iterations 9
 T goes from min(T) [0 0 0 0 0 0 0] -0.12825 to max(T) [0 0 0 0 0 0 0] 0.993197

ExecutionTime = 3.04 s  ClockTime = 58 s

Time = 0.8
Courant Number mean: 3.65875 max: 10.0761
DILUPBiCG:  Solving for T, Initial residual = 0.143046, Final residual = 1.76042e-09, No Iterations 13
DILUPBiCG:  Solving for T, Initial residual = 0.0232721, Final residual = 8.26142e-09, No Iterations 11
DILUPBiCG:  Solving for T, Initial residual = 0.00456911, Final residual = 3.55622e-09, No Iterations 10
DILUPBiCG:  Solving for T, Initial residual = 0.00142345, Final residual = 3.75919e-09, No Iterations 9
 T goes from min(T) [0 0 0 0 0 0 0] -0.142394 to max(T) [0 0 0 0 0 0 0] 1.00124

ExecutionTime = 3.18 s  ClockTime = 61 s

Time = 0.9
Courant Number mean: 3.49086 max: 9.87777
DILUPBiCG:  Solving for T, Initial residual = 0.146377, Final residual = 3.04186e-09, No Iterations 12
DILUPBiCG:  Solving for T, Initial residual = 0.0258338, Final residual = 2.52312e-09, No Iterations 11
DILUPBiCG:  Solving for T, Initial residual = 0.00545194, Final residual = 6.77383e-09, No Iterations 9
DILUPBiCG:  Solving for T, Initial residual = 0.0017643, Final residual = 2.36843e-09, No Iterations 9
 T goes from min(T) [0 0 0 0 0 0 0] -0.153774 to max(T) [0 0 0 0 0 0 0] 1.01988

ExecutionTime = 3.32 s  ClockTime = 64 s

Time = 1
Courant Number mean: 3.33235 max: 9.61896
DILUPBiCG:  Solving for T, Initial residual = 0.151929, Final residual = 7.42857e-09, No Iterations 11
DILUPBiCG:  Solving for T, Initial residual = 0.0278887, Final residual = 3.2784e-09, No Iterations 10
DILUPBiCG:  Solving for T, Initial residual = 0.00614431, Final residual = 2.25569e-09, No Iterations 9
DILUPBiCG:  Solving for T, Initial residual = 0.0020615, Final residual = 2.79519e-09, No Iterations 8
 T goes from min(T) [0 0 0 0 0 0 0] -0.159728 to max(T) [0 0 0 0 0 0 0] 1.02034

ExecutionTime = 3.46 s  ClockTime = 66 s

Time = 1.1
Courant Number mean: 3.1966 max: 9.19826
DILUPBiCG:  Solving for T, Initial residual = 0.159588, Final residual = 4.22838e-10, No Iterations 11
DILUPBiCG:  Solving for T, Initial residual = 0.0294391, Final residual = 7.7263e-09, No Iterations 9
DILUPBiCG:  Solving for T, Initial residual = 0.00661571, Final residual = 6.07907e-09, No Iterations 8
DILUPBiCG:  Solving for T, Initial residual = 0.00227599, Final residual = 5.27717e-09, No Iterations 7
 T goes from min(T) [0 0 0 0 0 0 0] -0.163357 to max(T) [0 0 0 0 0 0 0] 1.02083

ExecutionTime = 3.59 s  ClockTime = 69 s

Time = 1.2
Courant Number mean: 3.10527 max: 8.62485
DILUPBiCG:  Solving for T, Initial residual = 0.168773, Final residual = 9.70597e-10, No Iterations 10
DILUPBiCG:  Solving for T, Initial residual = 0.0306097, Final residual = 9.80668e-10, No Iterations 9
DILUPBiCG:  Solving for T, Initial residual = 0.00684834, Final residual = 8.66184e-10, No Iterations 8
DILUPBiCG:  Solving for T, Initial residual = 0.00234681, Final residual = 1.27324e-09, No Iterations 7
 T goes from min(T) [0 0 0 0 0 0 0] -0.166819 to max(T) [0 0 0 0 0 0 0] 1.01797

ExecutionTime = 3.75 s  ClockTime = 72 s

Time = 1.3
Courant Number mean: 3.06247 max: 8.33963
DILUPBiCG:  Solving for T, Initial residual = 0.179763, Final residual = 3.02882e-09, No Iterations 9
DILUPBiCG:  Solving for T, Initial residual = 0.0316554, Final residual = 2.9388e-09, No Iterations 8
DILUPBiCG:  Solving for T, Initial residual = 0.0069031, Final residual = 3.7578e-09, No Iterations 8
DILUPBiCG:  Solving for T, Initial residual = 0.00231116, Final residual = 8.93432e-09, No Iterations 6
 T goes from min(T) [0 0 0 0 0 0 0] -0.17436 to max(T) [0 0 0 0 0 0 0] 1.00536

ExecutionTime = 3.89 s  ClockTime = 74 s

Time = 1.4
Courant Number mean: 3.06624 max: 8.28902
DILUPBiCG:  Solving for T, Initial residual = 0.191486, Final residual = 5.21412e-09, No Iterations 9
DILUPBiCG:  Solving for T, Initial residual = 0.0325307, Final residual = 1.89013e-09, No Iterations 8
DILUPBiCG:  Solving for T, Initial residual = 0.00694639, Final residual = 8.4789e-09, No Iterations 7
DILUPBiCG:  Solving for T, Initial residual = 0.00220617, Final residual = 3.26778e-09, No Iterations 6
 T goes from min(T) [0 0 0 0 0 0 0] -0.207353 to max(T) [0 0 0 0 0 0 0] 0.991695

ExecutionTime = 4.01 s  ClockTime = 77 s

Time = 1.5
Courant Number mean: 3.10666 max: 8.06444
DILUPBiCG:  Solving for T, Initial residual = 0.202994, Final residual = 5.6661e-09, No Iterations 9
DILUPBiCG:  Solving for T, Initial residual = 0.0335549, Final residual = 2.94085e-09, No Iterations 8
DILUPBiCG:  Solving for T, Initial residual = 0.0070004, Final residual = 4.75841e-09, No Iterations 7
DILUPBiCG:  Solving for T, Initial residual = 0.00210408, Final residual = 1.09604e-09, No Iterations 7
 T goes from min(T) [0 0 0 0 0 0 0] -0.232647 to max(T) [0 0 0 0 0 0 0] 0.964539

ExecutionTime = 4.14 s  ClockTime = 79 s

Time = 1.6
Courant Number mean: 3.16878 max: 7.70234
DILUPBiCG:  Solving for T, Initial residual = 0.214087, Final residual = 6.73903e-09, No Iterations 9
DILUPBiCG:  Solving for T, Initial residual = 0.0346084, Final residual = 5.92869e-09, No Iterations 8
DILUPBiCG:  Solving for T, Initial residual = 0.007119, Final residual = 1.05128e-09, No Iterations 8
DILUPBiCG:  Solving for T, Initial residual = 0.0020135, Final residual = 3.86729e-10, No Iterations 8
 T goes from min(T) [0 0 0 0 0 0 0] -0.263577 to max(T) [0 0 0 0 0 0 0] 0.947346

ExecutionTime = 4.28 s  ClockTime = 82 s

Time = 1.7
Courant Number mean: 3.24211 max: 7.29922
DILUPBiCG:  Solving for T, Initial residual = 0.224884, Final residual = 3.49316e-09, No Iterations 10
DILUPBiCG:  Solving for T, Initial residual = 0.0352142, Final residual = 2.39508e-09, No Iterations 9
DILUPBiCG:  Solving for T, Initial residual = 0.00720365, Final residual = 3.87164e-10, No Iterations 9
DILUPBiCG:  Solving for T, Initial residual = 0.00197008, Final residual = 6.87635e-09, No Iterations 7
 T goes from min(T) [0 0 0 0 0 0 0] -0.291663 to max(T) [0 0 0 0 0 0 0] 0.92213

ExecutionTime = 4.42 s  ClockTime = 84 s

Time = 1.8
Courant Number mean: 3.32265 max: 6.87189
DILUPBiCG:  Solving for T, Initial residual = 0.234329, Final residual = 4.15598e-09, No Iterations 11
DILUPBiCG:  Solving for T, Initial residual = 0.0360512, Final residual = 5.98788e-09, No Iterations 9
DILUPBiCG:  Solving for T, Initial residual = 0.00740237, Final residual = 2.50981e-10, No Iterations 10
DILUPBiCG:  Solving for T, Initial residual = 0.00198568, Final residual = 1.47636e-09, No Iterations 8
 T goes from min(T) [0 0 0 0 0 0 0] -0.320991 to max(T) [0 0 0 0 0 0 0] 0.908904

ExecutionTime = 4.57 s  ClockTime = 87 s

Time = 1.9
Courant Number mean: 3.4075 max: 6.42061
DILUPBiCG:  Solving for T, Initial residual = 0.242101, Final residual = 7.50698e-09, No Iterations 11
DILUPBiCG:  Solving for T, Initial residual = 0.036729, Final residual = 4.04808e-09, No Iterations 10
DILUPBiCG:  Solving for T, Initial residual = 0.00760556, Final residual = 9.65963e-09, No Iterations 8
DILUPBiCG:  Solving for T, Initial residual = 0.00206163, Final residual = 3.61771e-09, No Iterations 8
 T goes from min(T) [0 0 0 0 0 0 0] -0.342606 to max(T) [0 0 0 0 0 0 0] 0.881585

ExecutionTime = 4.74 s  ClockTime = 91 s

Time = 2
Courant Number mean: 3.48552 max: 5.9586
DILUPBiCG:  Solving for T, Initial residual = 0.249714, Final residual = 3.90897e-09, No Iterations 11
DILUPBiCG:  Solving for T, Initial residual = 0.0373268, Final residual = 4.83331e-09, No Iterations 10
DILUPBiCG:  Solving for T, Initial residual = 0.00784416, Final residual = 2.41819e-09, No Iterations 9
DILUPBiCG:  Solving for T, Initial residual = 0.00216134, Final residual = 8.29417e-09, No Iterations 8
 T goes from min(T) [0 0 0 0 0 0 0] -0.361593 to max(T) [0 0 0 0 0 0 0] 0.813332

ExecutionTime = 4.88 s  ClockTime = 93 s

Time = 2.1
Courant Number mean: 3.52847 max: 5.4925
DILUPBiCG:  Solving for T, Initial residual = 0.255201, Final residual = 2.68635e-10, No Iterations 13
DILUPBiCG:  Solving for T, Initial residual = 0.0378921, Final residual = 8.26474e-09, No Iterations 10
DILUPBiCG:  Solving for T, Initial residual = 0.00798144, Final residual = 1.84786e-09, No Iterations 10
DILUPBiCG:  Solving for T, Initial residual = 0.00220749, Final residual = 6.58206e-09, No Iterations 8
 T goes from min(T) [0 0 0 0 0 0 0] -0.375026 to max(T) [0 0 0 0 0 0 0] 0.831189

ExecutionTime = 5.03 s  ClockTime = 96 s

Time = 2.2
Courant Number mean: 3.53227 max: 5.03591
DILUPBiCG:  Solving for T, Initial residual = 0.259286, Final residual = 1.25397e-09, No Iterations 12
DILUPBiCG:  Solving for T, Initial residual = 0.0376967, Final residual = 1.7378e-09, No Iterations 11
DILUPBiCG:  Solving for T, Initial residual = 0.00798756, Final residual = 1.07431e-09, No Iterations 10
DILUPBiCG:  Solving for T, Initial residual = 0.00219498, Final residual = 4.1834e-09, No Iterations 8
 T goes from min(T) [0 0 0 0 0 0 0] -0.381816 to max(T) [0 0 0 0 0 0 0] 0.7817

ExecutionTime = 5.17 s  ClockTime = 99 s

Time = 2.3
Courant Number mean: 3.50183 max: 4.59595
DILUPBiCG:  Solving for T, Initial residual = 0.26178, Final residual = 4.92124e-09, No Iterations 11
DILUPBiCG:  Solving for T, Initial residual = 0.0371891, Final residual = 1.60224e-09, No Iterations 11
DILUPBiCG:  Solving for T, Initial residual = 0.00787808, Final residual = 8.12552e-10, No Iterations 10
DILUPBiCG:  Solving for T, Initial residual = 0.00214606, Final residual = 6.7854e-09, No Iterations 7
 T goes from min(T) [0 0 0 0 0 0 0] -0.402422 to max(T) [0 0 0 0 0 0 0] 0.791989

ExecutionTime = 5.31 s  ClockTime = 102 s

Time = 2.4
Courant Number mean: 3.44608 max: 4.19356
DILUPBiCG:  Solving for T, Initial residual = 0.263733, Final residual = 2.91178e-09, No Iterations 11
DILUPBiCG:  Solving for T, Initial residual = 0.0365164, Final residual = 2.72955e-09, No Iterations 10
DILUPBiCG:  Solving for T, Initial residual = 0.00762799, Final residual = 3.0395e-09, No Iterations 9
DILUPBiCG:  Solving for T, Initial residual = 0.0020519, Final residual = 5.58405e-09, No Iterations 7
 T goes from min(T) [0 0 0 0 0 0 0] -0.400028 to max(T) [0 0 0 0 0 0 0] 0.768579

ExecutionTime = 5.46 s  ClockTime = 105 s

Time = 2.5
Courant Number mean: 3.37689 max: 3.95686
DILUPBiCG:  Solving for T, Initial residual = 0.264277, Final residual = 3.69928e-09, No Iterations 10
DILUPBiCG:  Solving for T, Initial residual = 0.0352869, Final residual = 4.14716e-09, No Iterations 9
DILUPBiCG:  Solving for T, Initial residual = 0.0072894, Final residual = 4.00327e-09, No Iterations 8
DILUPBiCG:  Solving for T, Initial residual = 0.00191409, Final residual = 4.35493e-09, No Iterations 7
 T goes from min(T) [0 0 0 0 0 0 0] -0.400068 to max(T) [0 0 0 0 0 0 0] 0.749191

ExecutionTime = 5.65 s  ClockTime = 109 s

Time = 2.6
Courant Number mean: 3.30771 max: 4.36421
DILUPBiCG:  Solving for T, Initial residual = 0.263954, Final residual = 6.20652e-09, No Iterations 9
DILUPBiCG:  Solving for T, Initial residual = 0.0341574, Final residual = 7.20187e-09, No Iterations 8
DILUPBiCG:  Solving for T, Initial residual = 0.00695268, Final residual = 8.35457e-09, No Iterations 7
DILUPBiCG:  Solving for T, Initial residual = 0.00181113, Final residual = 1.71603e-09, No Iterations 7
 T goes from min(T) [0 0 0 0 0 0 0] -0.386894 to max(T) [0 0 0 0 0 0 0] 0.755983

ExecutionTime = 5.8 s  ClockTime = 112 s

Time = 2.7
Courant Number mean: 3.25196 max: 4.81196
DILUPBiCG:  Solving for T, Initial residual = 0.262041, Final residual = 4.16059e-09, No Iterations 9
DILUPBiCG:  Solving for T, Initial residual = 0.0327954, Final residual = 6.86846e-09, No Iterations 8
DILUPBiCG:  Solving for T, Initial residual = 0.00660154, Final residual = 4.55384e-09, No Iterations 7
DILUPBiCG:  Solving for T, Initial residual = 0.00170571, Final residual = 8.65585e-09, No Iterations 6
 T goes from min(T) [0 0 0 0 0 0 0] -0.402239 to max(T) [0 0 0 0 0 0 0] 0.750607

ExecutionTime = 5.93 s  ClockTime = 115 s

Time = 2.8
Courant Number mean: 3.22151 max: 5.25199
DILUPBiCG:  Solving for T, Initial residual = 0.25933, Final residual = 6.33193e-09, No Iterations 9
DILUPBiCG:  Solving for T, Initial residual = 0.0314897, Final residual = 9.96502e-10, No Iterations 9
DILUPBiCG:  Solving for T, Initial residual = 0.00625112, Final residual = 1.3415e-09, No Iterations 8
DILUPBiCG:  Solving for T, Initial residual = 0.00163167, Final residual = 4.40075e-10, No Iterations 8
 T goes from min(T) [0 0 0 0 0 0 0] -0.414002 to max(T) [0 0 0 0 0 0 0] 0.751036

ExecutionTime = 6.07 s  ClockTime = 118 s

Time = 2.9
Courant Number mean: 3.22531 max: 5.66847
DILUPBiCG:  Solving for T, Initial residual = 0.254957, Final residual = 2.39152e-09, No Iterations 10
DILUPBiCG:  Solving for T, Initial residual = 0.030487, Final residual = 1.47695e-09, No Iterations 9
DILUPBiCG:  Solving for T, Initial residual = 0.00607129, Final residual = 5.3136e-09, No Iterations 8
DILUPBiCG:  Solving for T, Initial residual = 0.00160486, Final residual = 3.72279e-09, No Iterations 7
 T goes from min(T) [0 0 0 0 0 0 0] -0.421771 to max(T) [0 0 0 0 0 0 0] 0.752697

ExecutionTime = 6.22 s  ClockTime = 121 s

Time = 3
Courant Number mean: 3.26847 max: 6.07062
DILUPBiCG:  Solving for T, Initial residual = 0.250138, Final residual = 8.12312e-09, No Iterations 10
DILUPBiCG:  Solving for T, Initial residual = 0.0299012, Final residual = 4.61752e-09, No Iterations 9
DILUPBiCG:  Solving for T, Initial residual = 0.00602672, Final residual = 1.35738e-09, No Iterations 9
DILUPBiCG:  Solving for T, Initial residual = 0.00161802, Final residual = 6.66673e-09, No Iterations 7
 T goes from min(T) [0 0 0 0 0 0 0] -0.42513 to max(T) [0 0 0 0 0 0 0] 0.755327

ExecutionTime = 6.38 s  ClockTime = 126 s

Time = 3.1
Courant Number mean: 3.3568 max: 6.44403
DILUPBiCG:  Solving for T, Initial residual = 0.244924, Final residual = 5.42734e-09, No Iterations 11
DILUPBiCG:  Solving for T, Initial residual = 0.0303351, Final residual = 8.05158e-09, No Iterations 9
DILUPBiCG:  Solving for T, Initial residual = 0.0061537, Final residual = 7.52994e-09, No Iterations 9
DILUPBiCG:  Solving for T, Initial residual = 0.00166588, Final residual = 1.67827e-09, No Iterations 8
 T goes from min(T) [0 0 0 0 0 0 0] -0.428131 to max(T) [0 0 0 0 0 0 0] 0.754734

ExecutionTime = 6.54 s  ClockTime = 131 s

Time = 3.2
Courant Number mean: 3.48491 max: 6.78832
DILUPBiCG:  Solving for T, Initial residual = 0.238849, Final residual = 5.05644e-09, No Iterations 12
DILUPBiCG:  Solving for T, Initial residual = 0.0313972, Final residual = 4.6932e-09, No Iterations 10
DILUPBiCG:  Solving for T, Initial residual = 0.00643067, Final residual = 5.14163e-09, No Iterations 9
DILUPBiCG:  Solving for T, Initial residual = 0.00174805, Final residual = 9.36414e-09, No Iterations 8
 T goes from min(T) [0 0 0 0 0 0 0] -0.433107 to max(T) [0 0 0 0 0 0 0] 0.761604

ExecutionTime = 6.68 s  ClockTime = 134 s

Time = 3.3
Courant Number mean: 3.63091 max: 7.09677
DILUPBiCG:  Solving for T, Initial residual = 0.232257, Final residual = 3.02601e-09, No Iterations 13
DILUPBiCG:  Solving for T, Initial residual = 0.0325341, Final residual = 3.67657e-09, No Iterations 11
DILUPBiCG:  Solving for T, Initial residual = 0.00682544, Final residual = 4.56245e-09, No Iterations 10
DILUPBiCG:  Solving for T, Initial residual = 0.00191414, Final residual = 3.4528e-09, No Iterations 9
 T goes from min(T) [0 0 0 0 0 0 0] -0.436942 to max(T) [0 0 0 0 0 0 0] 0.761124

ExecutionTime = 6.83 s  ClockTime = 137 s

Time = 3.4
Courant Number mean: 3.78209 max: 7.3592
DILUPBiCG:  Solving for T, Initial residual = 0.225177, Final residual = 2.1341e-09, No Iterations 14
DILUPBiCG:  Solving for T, Initial residual = 0.0338862, Final residual = 8.92264e-09, No Iterations 11
DILUPBiCG:  Solving for T, Initial residual = 0.00746778, Final residual = 5.63526e-09, No Iterations 10
DILUPBiCG:  Solving for T, Initial residual = 0.00217854, Final residual = 1.46808e-09, No Iterations 10
 T goes from min(T) [0 0 0 0 0 0 0] -0.429387 to max(T) [0 0 0 0 0 0 0] 0.759939

ExecutionTime = 6.98 s  ClockTime = 139 s

Time = 3.5
Courant Number mean: 3.92838 max: 7.57933
DILUPBiCG:  Solving for T, Initial residual = 0.21837, Final residual = 3.815e-09, No Iterations 14
DILUPBiCG:  Solving for T, Initial residual = 0.035342, Final residual = 1.90884e-09, No Iterations 12
DILUPBiCG:  Solving for T, Initial residual = 0.00817116, Final residual = 6.44743e-09, No Iterations 10
DILUPBiCG:  Solving for T, Initial residual = 0.0025301, Final residual = 1.34927e-09, No Iterations 10
 T goes from min(T) [0 0 0 0 0 0 0] -0.4289 to max(T) [0 0 0 0 0 0 0] 0.757542

ExecutionTime = 7.13 s  ClockTime = 142 s

Time = 3.6
Courant Number mean: 4.05614 max: 7.74354
DILUPBiCG:  Solving for T, Initial residual = 0.21317, Final residual = 4.81295e-09, No Iterations 14
DILUPBiCG:  Solving for T, Initial residual = 0.0365799, Final residual = 1.96494e-09, No Iterations 12
DILUPBiCG:  Solving for T, Initial residual = 0.00898264, Final residual = 9.75606e-09, No Iterations 10
DILUPBiCG:  Solving for T, Initial residual = 0.00293656, Final residual = 2.52698e-09, No Iterations 10
 T goes from min(T) [0 0 0 0 0 0 0] -0.425724 to max(T) [0 0 0 0 0 0 0] 0.761128

ExecutionTime = 7.27 s  ClockTime = 145 s

Time = 3.7
Courant Number mean: 4.15461 max: 7.86524
DILUPBiCG:  Solving for T, Initial residual = 0.209195, Final residual = 2.81051e-09, No Iterations 14
DILUPBiCG:  Solving for T, Initial residual = 0.0379289, Final residual = 2.05933e-09, No Iterations 12
DILUPBiCG:  Solving for T, Initial residual = 0.00981363, Final residual = 3.54778e-09, No Iterations 11
DILUPBiCG:  Solving for T, Initial residual = 0.00337507, Final residual = 4.23563e-09, No Iterations 10
 T goes from min(T) [0 0 0 0 0 0 0] -0.418323 to max(T) [0 0 0 0 0 0 0] 0.755995

ExecutionTime = 7.42 s  ClockTime = 148 s

Time = 3.8
Courant Number mean: 4.21414 max: 8.13524
DILUPBiCG:  Solving for T, Initial residual = 0.206517, Final residual = 7.11981e-09, No Iterations 13
DILUPBiCG:  Solving for T, Initial residual = 0.0399656, Final residual = 3.10954e-09, No Iterations 12
DILUPBiCG:  Solving for T, Initial residual = 0.0107889, Final residual = 4.29609e-10, No Iterations 12
DILUPBiCG:  Solving for T, Initial residual = 0.00385574, Final residual = 5.36764e-09, No Iterations 10
 T goes from min(T) [0 0 0 0 0 0 0] -0.409899 to max(T) [0 0 0 0 0 0 0] 0.757706

ExecutionTime = 7.57 s  ClockTime = 151 s

Time = 3.9
Courant Number mean: 4.23111 max: 8.58239
DILUPBiCG:  Solving for T, Initial residual = 0.206327, Final residual = 8.4581e-10, No Iterations 14
DILUPBiCG:  Solving for T, Initial residual = 0.0426911, Final residual = 3.42312e-09, No Iterations 12
DILUPBiCG:  Solving for T, Initial residual = 0.01195, Final residual = 4.44387e-09, No Iterations 11
DILUPBiCG:  Solving for T, Initial residual = 0.00434164, Final residual = 2.2573e-10, No Iterations 12
 T goes from min(T) [0 0 0 0 0 0 0] -0.398748 to max(T) [0 0 0 0 0 0 0] 0.753822

ExecutionTime = 7.71 s  ClockTime = 153 s

Time = 4
Courant Number mean: 4.20634 max: 9.0105
DILUPBiCG:  Solving for T, Initial residual = 0.208597, Final residual = 4.99885e-10, No Iterations 14
DILUPBiCG:  Solving for T, Initial residual = 0.0461611, Final residual = 3.34056e-09, No Iterations 12
DILUPBiCG:  Solving for T, Initial residual = 0.0132075, Final residual = 4.67138e-09, No Iterations 11
DILUPBiCG:  Solving for T, Initial residual = 0.00483319, Final residual = 2.93853e-09, No Iterations 11
 T goes from min(T) [0 0 0 0 0 0 0] -0.383431 to max(T) [0 0 0 0 0 0 0] 0.749749

ExecutionTime = 7.86 s  ClockTime = 156 s

Time = 4.1
Courant Number mean: 4.15768 max: 9.40298
DILUPBiCG:  Solving for T, Initial residual = 0.213354, Final residual = 8.44943e-09, No Iterations 12
DILUPBiCG:  Solving for T, Initial residual = 0.0497066, Final residual = 7.58565e-09, No Iterations 11
DILUPBiCG:  Solving for T, Initial residual = 0.014449, Final residual = 7.61399e-09, No Iterations 10
DILUPBiCG:  Solving for T, Initial residual = 0.00531711, Final residual = 5.27373e-10, No Iterations 11
 T goes from min(T) [0 0 0 0 0 0 0] -0.370574 to max(T) [0 0 0 0 0 0 0] 0.746078

ExecutionTime = 8.01 s  ClockTime = 159 s

Time = 4.2
Courant Number mean: 4.09329 max: 9.76757
DILUPBiCG:  Solving for T, Initial residual = 0.219809, Final residual = 9.03309e-09, No Iterations 11
DILUPBiCG:  Solving for T, Initial residual = 0.0526234, Final residual = 9.62002e-09, No Iterations 11
DILUPBiCG:  Solving for T, Initial residual = 0.0154228, Final residual = 1.97769e-09, No Iterations 11
DILUPBiCG:  Solving for T, Initial residual = 0.00566366, Final residual = 4.52406e-09, No Iterations 10
 T goes from min(T) [0 0 0 0 0 0 0] -0.363297 to max(T) [0 0 0 0 0 0 0] 0.736862

ExecutionTime = 8.16 s  ClockTime = 162 s

Time = 4.3
Courant Number mean: 4.01772 max: 10.0929
DILUPBiCG:  Solving for T, Initial residual = 0.226045, Final residual = 7.08723e-09, No Iterations 11
DILUPBiCG:  Solving for T, Initial residual = 0.0547515, Final residual = 4.7899e-09, No Iterations 11
DILUPBiCG:  Solving for T, Initial residual = 0.0160982, Final residual = 4.43151e-09, No Iterations 10
DILUPBiCG:  Solving for T, Initial residual = 0.00593527, Final residual = 3.25741e-09, No Iterations 9
 T goes from min(T) [0 0 0 0 0 0 0] -0.362961 to max(T) [0 0 0 0 0 0 0] 0.723094

ExecutionTime = 8.31 s  ClockTime = 165 s

Time = 4.4
Courant Number mean: 3.93285 max: 10.3601
DILUPBiCG:  Solving for T, Initial residual = 0.231255, Final residual = 4.09555e-09, No Iterations 11
DILUPBiCG:  Solving for T, Initial residual = 0.0568293, Final residual = 3.02051e-09, No Iterations 11
DILUPBiCG:  Solving for T, Initial residual = 0.0167918, Final residual = 3.4601e-09, No Iterations 10
DILUPBiCG:  Solving for T, Initial residual = 0.00622996, Final residual = 8.0253e-09, No Iterations 9
 T goes from min(T) [0 0 0 0 0 0 0] -0.362548 to max(T) [0 0 0 0 0 0 0] 0.701605

ExecutionTime = 8.45 s  ClockTime = 168 s

Time = 4.5
Courant Number mean: 3.84153 max: 10.5852
DILUPBiCG:  Solving for T, Initial residual = 0.236643, Final residual = 3.11333e-09, No Iterations 11
DILUPBiCG:  Solving for T, Initial residual = 0.058421, Final residual = 5.71296e-09, No Iterations 10
DILUPBiCG:  Solving for T, Initial residual = 0.0173132, Final residual = 3.53116e-09, No Iterations 10
DILUPBiCG:  Solving for T, Initial residual = 0.00644565, Final residual = 9.62967e-09, No Iterations 8
 T goes from min(T) [0 0 0 0 0 0 0] -0.34946 to max(T) [0 0 0 0 0 0 0] 0.696318

ExecutionTime = 8.61 s  ClockTime = 170 s

Time = 4.6
Courant Number mean: 3.74635 max: 10.7472
DILUPBiCG:  Solving for T, Initial residual = 0.241097, Final residual = 9.19838e-10, No Iterations 11
DILUPBiCG:  Solving for T, Initial residual = 0.0598333, Final residual = 2.45303e-09, No Iterations 10
DILUPBiCG:  Solving for T, Initial residual = 0.0178445, Final residual = 3.41342e-09, No Iterations 9
DILUPBiCG:  Solving for T, Initial residual = 0.00669543, Final residual = 9.91532e-10, No Iterations 9
 T goes from min(T) [0 0 0 0 0 0 0] -0.3449 to max(T) [0 0 0 0 0 0 0] 0.67379

ExecutionTime = 8.75 s  ClockTime = 173 s

Time = 4.7
Courant Number mean: 3.65126 max: 10.8449
DILUPBiCG:  Solving for T, Initial residual = 0.245351, Final residual = 5.75434e-09, No Iterations 10
DILUPBiCG:  Solving for T, Initial residual = 0.061391, Final residual = 9.26021e-09, No Iterations 9
DILUPBiCG:  Solving for T, Initial residual = 0.0184232, Final residual = 2.15873e-09, No Iterations 9
DILUPBiCG:  Solving for T, Initial residual = 0.0069251, Final residual = 6.68661e-09, No Iterations 8
 T goes from min(T) [0 0 0 0 0 0 0] -0.315163 to max(T) [0 0 0 0 0 0 0] 0.668424

ExecutionTime = 8.9 s  ClockTime = 176 s

Time = 4.8
Courant Number mean: 3.56312 max: 10.8389
DILUPBiCG:  Solving for T, Initial residual = 0.251743, Final residual = 2.281e-09, No Iterations 10
DILUPBiCG:  Solving for T, Initial residual = 0.0631638, Final residual = 2.97365e-09, No Iterations 9
DILUPBiCG:  Solving for T, Initial residual = 0.0190408, Final residual = 4.57203e-09, No Iterations 8
DILUPBiCG:  Solving for T, Initial residual = 0.00721781, Final residual = 4.55778e-09, No Iterations 8
 T goes from min(T) [0 0 0 0 0 0 0] -0.284515 to max(T) [0 0 0 0 0 0 0] 0.655544

ExecutionTime = 9.05 s  ClockTime = 179 s

Time = 4.9
Courant Number mean: 3.49589 max: 10.5753
DILUPBiCG:  Solving for T, Initial residual = 0.259563, Final residual = 3.51222e-09, No Iterations 9
DILUPBiCG:  Solving for T, Initial residual = 0.0647465, Final residual = 9.65759e-09, No Iterations 8
DILUPBiCG:  Solving for T, Initial residual = 0.0195922, Final residual = 3.36199e-09, No Iterations 8
DILUPBiCG:  Solving for T, Initial residual = 0.00747637, Final residual = 9.37747e-09, No Iterations 7
 T goes from min(T) [0 0 0 0 0 0 0] -0.255187 to max(T) [0 0 0 0 0 0 0] 0.679327

ExecutionTime = 9.19 s  ClockTime = 182 s

Time = 5
Courant Number mean: 3.47259 max: 10.0899
DILUPBiCG:  Solving for T, Initial residual = 0.266317, Final residual = 4.0271e-10, No Iterations 11
DILUPBiCG:  Solving for T, Initial residual = 0.066626, Final residual = 2.63191e-09, No Iterations 9
DILUPBiCG:  Solving for T, Initial residual = 0.0204613, Final residual = 9.20438e-10, No Iterations 9
DILUPBiCG:  Solving for T, Initial residual = 0.00785081, Final residual = 5.79043e-09, No Iterations 8
 T goes from min(T) [0 0 0 0 0 0 0] -0.243857 to max(T) [0 0 0 0 0 0 0] 0.726436

ExecutionTime = 9.38 s  ClockTime = 185 s

Time = 5.1
Courant Number mean: 3.49589 max: 10.5753
DILUPBiCG:  Solving for T, Initial residual = 0.272459, Final residual = 2.7096e-10, No Iterations 12
DILUPBiCG:  Solving for T, Initial residual = 0.0672758, Final residual = 1.38808e-09, No Iterations 10
DILUPBiCG:  Solving for T, Initial residual = 0.0208657, Final residual = 3.48564e-09, No Iterations 9
DILUPBiCG:  Solving for T, Initial residual = 0.00818172, Final residual = 2.30479e-09, No Iterations 9
 T goes from min(T) [0 0 0 0 0 0 0] -0.247439 to max(T) [0 0 0 0 0 0 0] 0.743494

ExecutionTime = 9.53 s  ClockTime = 188 s

Time = 5.2
Courant Number mean: 3.56312 max: 10.8389
DILUPBiCG:  Solving for T, Initial residual = 0.278045, Final residual = 8.10098e-09, No Iterations 11
DILUPBiCG:  Solving for T, Initial residual = 0.0682338, Final residual = 9.78469e-09, No Iterations 10
DILUPBiCG:  Solving for T, Initial residual = 0.0217778, Final residual = 3.87078e-10, No Iterations 11
DILUPBiCG:  Solving for T, Initial residual = 0.00870429, Final residual = 7.36661e-09, No Iterations 9
 T goes from min(T) [0 0 0 0 0 0 0] -0.246474 to max(T) [0 0 0 0 0 0 0] 0.728093

ExecutionTime = 9.68 s  ClockTime = 191 s

Time = 5.3
Courant Number mean: 3.65126 max: 10.8449
DILUPBiCG:  Solving for T, Initial residual = 0.283672, Final residual = 1.86013e-09, No Iterations 13
DILUPBiCG:  Solving for T, Initial residual = 0.0690697, Final residual = 7.91416e-09, No Iterations 12
DILUPBiCG:  Solving for T, Initial residual = 0.0222707, Final residual = 8.6581e-09, No Iterations 10
DILUPBiCG:  Solving for T, Initial residual = 0.00910898, Final residual = 3.56741e-09, No Iterations 10
 T goes from min(T) [0 0 0 0 0 0 0] -0.231868 to max(T) [0 0 0 0 0 0 0] 0.724951

ExecutionTime = 9.82 s  ClockTime = 193 s

Time = 5.4
Courant Number mean: 3.74635 max: 10.7472
DILUPBiCG:  Solving for T, Initial residual = 0.287668, Final residual = 7.63846e-10, No Iterations 14
DILUPBiCG:  Solving for T, Initial residual = 0.0686159, Final residual = 4.89374e-09, No Iterations 12
DILUPBiCG:  Solving for T, Initial residual = 0.0220554, Final residual = 4.66728e-09, No Iterations 11
DILUPBiCG:  Solving for T, Initial residual = 0.00907601, Final residual = 2.01273e-09, No Iterations 11
 T goes from min(T) [0 0 0 0 0 0 0] -0.221698 to max(T) [0 0 0 0 0 0 0] 0.686025

ExecutionTime = 9.96 s  ClockTime = 196 s

Time = 5.5
Courant Number mean: 3.84153 max: 10.5852
DILUPBiCG:  Solving for T, Initial residual = 0.289802, Final residual = 2.60878e-09, No Iterations 14
DILUPBiCG:  Solving for T, Initial residual = 0.0684245, Final residual = 8.75143e-10, No Iterations 14
DILUPBiCG:  Solving for T, Initial residual = 0.0219656, Final residual = 4.44493e-09, No Iterations 12
DILUPBiCG:  Solving for T, Initial residual = 0.00900225, Final residual = 4.0958e-09, No Iterations 11
 T goes from min(T) [0 0 0 0 0 0 0] -0.208322 to max(T) [0 0 0 0 0 0 0] 0.68632

ExecutionTime = 10.11 s  ClockTime = 199 s

Time = 5.6
Courant Number mean: 3.93285 max: 10.3601
DILUPBiCG:  Solving for T, Initial residual = 0.292668, Final residual = 6.41558e-09, No Iterations 14
DILUPBiCG:  Solving for T, Initial residual = 0.0679021, Final residual = 4.27809e-09, No Iterations 13
DILUPBiCG:  Solving for T, Initial residual = 0.0214752, Final residual = 3.10067e-09, No Iterations 12
DILUPBiCG:  Solving for T, Initial residual = 0.00863634, Final residual = 5.23395e-09, No Iterations 11
 T goes from min(T) [0 0 0 0 0 0 0] -0.235353 to max(T) [0 0 0 0 0 0 0] 0.701611

ExecutionTime = 10.24 s  ClockTime = 201 s

Time = 5.7
Courant Number mean: 4.01772 max: 10.0929
DILUPBiCG:  Solving for T, Initial residual = 0.294846, Final residual = 9.42855e-09, No Iterations 14
DILUPBiCG:  Solving for T, Initial residual = 0.0676675, Final residual = 4.33006e-09, No Iterations 13
DILUPBiCG:  Solving for T, Initial residual = 0.0209638, Final residual = 4.46934e-09, No Iterations 12
DILUPBiCG:  Solving for T, Initial residual = 0.00833557, Final residual = 9.07995e-09, No Iterations 11
 T goes from min(T) [0 0 0 0 0 0 0] -0.232806 to max(T) [0 0 0 0 0 0 0] 0.710799

ExecutionTime = 10.39 s  ClockTime = 204 s

Time = 5.8
Courant Number mean: 4.09329 max: 9.76757
DILUPBiCG:  Solving for T, Initial residual = 0.296364, Final residual = 8.91873e-09, No Iterations 15
DILUPBiCG:  Solving for T, Initial residual = 0.0670057, Final residual = 6.86404e-09, No Iterations 13
DILUPBiCG:  Solving for T, Initial residual = 0.0205508, Final residual = 3.03387e-09, No Iterations 13
DILUPBiCG:  Solving for T, Initial residual = 0.00804311, Final residual = 2.15888e-09, No Iterations 12
 T goes from min(T) [0 0 0 0 0 0 0] -0.233857 to max(T) [0 0 0 0 0 0 0] 0.692947

ExecutionTime = 10.54 s  ClockTime = 207 s

Time = 5.9
Courant Number mean: 4.15768 max: 9.40298
DILUPBiCG:  Solving for T, Initial residual = 0.297206, Final residual = 5.36796e-09, No Iterations 15
DILUPBiCG:  Solving for T, Initial residual = 0.0667306, Final residual = 5.99311e-09, No Iterations 13
DILUPBiCG:  Solving for T, Initial residual = 0.020234, Final residual = 8.30752e-09, No Iterations 12
DILUPBiCG:  Solving for T, Initial residual = 0.00785502, Final residual = 9.97028e-09, No Iterations 11
 T goes from min(T) [0 0 0 0 0 0 0] -0.264707 to max(T) [0 0 0 0 0 0 0] 0.66232

ExecutionTime = 10.68 s  ClockTime = 209 s

Time = 6
Courant Number mean: 4.20634 max: 9.0105
DILUPBiCG:  Solving for T, Initial residual = 0.298496, Final residual = 7.25611e-09, No Iterations 15
DILUPBiCG:  Solving for T, Initial residual = 0.0664533, Final residual = 5.39866e-09, No Iterations 14
DILUPBiCG:  Solving for T, Initial residual = 0.0200228, Final residual = 5.40372e-09, No Iterations 13
DILUPBiCG:  Solving for T, Initial residual = 0.00772091, Final residual = 3.0321e-09, No Iterations 12
 T goes from min(T) [0 0 0 0 0 0 0] -0.273213 to max(T) [0 0 0 0 0 0 0] 0.648467

ExecutionTime = 10.83 s  ClockTime = 212 s

End

