/*---------------------------------------------------------------------------*\
| =========                 |                                                 |
| \\      /  F ield         | OpenFOAM: The Open Source CFD Toolbox           |
|  \\    /   O peration     | Version:  dev                                   |
|   \\  /    A nd           | Web:      www.OpenFOAM.org                      |
|    \\/     M anipulation  |                                                 |
\*---------------------------------------------------------------------------*/
Build  : dev-90f39e0d894d
Exec   : scalarDeformationWithGhosts explicit -case nonOrthogW/240x120/c5_explicit
Date   : May 23 2017
Time   : 20:31:28
Host   : "sws02hw.private.rdg.ac.uk"
PID    : 22935
Case   : nonOrthogW/240x120/c5_explicit
nProcs : 1
sigFpe : Enabling floating point exception trapping (FOAM_SIGFPE).
fileModificationChecking : Monitoring run-time modified files using timeStampMaster (fileModificationSkew 10)
allowSystemOperations : Allowing user-supplied system call operations

// * * * * * * * * * * * * * * * * * * * * * * * * * * * * * * * * * * * * * //
Create time

Create mesh for time = 0

Reading field T

Reading fields phi (compulsory), U and Uf (optional)

Calculating owner stencils
Calculating neighbour stencils

Calculating scalar transport

Courant Number mean: 2.32799 max: 4.82541
Time = 0.025
Courant Number mean: 2.32715 max: 4.85775
diagonal:  Solving for T, Initial residual = 0, Final residual = 0, No Iterations 0
diagonal:  Solving for T, Initial residual = 0, Final residual = 0, No Iterations 0
diagonal:  Solving for T, Initial residual = 0, Final residual = 0, No Iterations 0
diagonal:  Solving for T, Initial residual = 0, Final residual = 0, No Iterations 0
 T goes from min(T) [0 0 0 0 0 0 0] 8.23368e-21 to max(T) [0 0 0 0 0 0 0] 0.953777

ExecutionTime = 8.52 s  ClockTime = 178 s

Time = 0.05
Courant Number mean: 2.32459 max: 4.8881
diagonal:  Solving for T, Initial residual = 0, Final residual = 0, No Iterations 0
diagonal:  Solving for T, Initial residual = 0, Final residual = 0, No Iterations 0
diagonal:  Solving for T, Initial residual = 0, Final residual = 0, No Iterations 0
diagonal:  Solving for T, Initial residual = 0, Final residual = 0, No Iterations 0
 T goes from min(T) [0 0 0 0 0 0 0] -0.00109058 to max(T) [0 0 0 0 0 0 0] 0.954286

ExecutionTime = 9.07 s  ClockTime = 190 s

Time = 0.075
Courant Number mean: 2.32033 max: 4.91717
diagonal:  Solving for T, Initial residual = 0, Final residual = 0, No Iterations 0
diagonal:  Solving for T, Initial residual = 0, Final residual = 0, No Iterations 0
diagonal:  Solving for T, Initial residual = 0, Final residual = 0, No Iterations 0
diagonal:  Solving for T, Initial residual = 0, Final residual = 0, No Iterations 0
 T goes from min(T) [0 0 0 0 0 0 0] -0.563074 to max(T) [0 0 0 0 0 0 0] 0.961435

ExecutionTime = 9.66 s  ClockTime = 202 s

Time = 0.1
Courant Number mean: 2.31437 max: 4.94565
diagonal:  Solving for T, Initial residual = 0, Final residual = 0, No Iterations 0
diagonal:  Solving for T, Initial residual = 0, Final residual = 0, No Iterations 0
diagonal:  Solving for T, Initial residual = 0, Final residual = 0, No Iterations 0
diagonal:  Solving for T, Initial residual = 0, Final residual = 0, No Iterations 0
 T goes from min(T) [0 0 0 0 0 0 0] -122.512 to max(T) [0 0 0 0 0 0 0] 110.5

ExecutionTime = 10.19 s  ClockTime = 213 s

Time = 0.125
Courant Number mean: 2.30674 max: 4.97201
diagonal:  Solving for T, Initial residual = 0, Final residual = 0, No Iterations 0
diagonal:  Solving for T, Initial residual = 0, Final residual = 0, No Iterations 0
diagonal:  Solving for T, Initial residual = 0, Final residual = 0, No Iterations 0
diagonal:  Solving for T, Initial residual = 0, Final residual = 0, No Iterations 0
 T goes from min(T) [0 0 0 0 0 0 0] -21183.4 to max(T) [0 0 0 0 0 0 0] 22852.4

ExecutionTime = 10.72 s  ClockTime = 225 s

Time = 0.15
Courant Number mean: 2.29743 max: 4.99629
diagonal:  Solving for T, Initial residual = 0, Final residual = 0, No Iterations 0
diagonal:  Solving for T, Initial residual = 0, Final residual = 0, No Iterations 0
diagonal:  Solving for T, Initial residual = 0, Final residual = 0, No Iterations 0
diagonal:  Solving for T, Initial residual = 0, Final residual = 0, No Iterations 0
 T goes from min(T) [0 0 0 0 0 0 0] -4.63106e+06 to max(T) [0 0 0 0 0 0 0] 4.3503e+06

ExecutionTime = 11.25 s  ClockTime = 236 s

Time = 0.175
Courant Number mean: 2.28671 max: 5.02052
diagonal:  Solving for T, Initial residual = 0, Final residual = 0, No Iterations 0
diagonal:  Solving for T, Initial residual = 0, Final residual = 0, No Iterations 0
diagonal:  Solving for T, Initial residual = 0, Final residual = 0, No Iterations 0
diagonal:  Solving for T, Initial residual = 0, Final residual = 0, No Iterations 0
 T goes from min(T) [0 0 0 0 0 0 0] -1.21292e+09 to max(T) [0 0 0 0 0 0 0] 1.16804e+09

ExecutionTime = 11.78 s  ClockTime = 246 s

Time = 0.2
Courant Number mean: 2.27484 max: 5.04251
diagonal:  Solving for T, Initial residual = 0, Final residual = 0, No Iterations 0
diagonal:  Solving for T, Initial residual = 0, Final residual = 0, No Iterations 0
diagonal:  Solving for T, Initial residual = 0, Final residual = 0, No Iterations 0
diagonal:  Solving for T, Initial residual = 0, Final residual = 0, No Iterations 0
 T goes from min(T) [0 0 0 0 0 0 0] -2.86974e+11 to max(T) [0 0 0 0 0 0 0] 2.89605e+11

ExecutionTime = 12.29 s  ClockTime = 256 s

Time = 0.225
Courant Number mean: 2.26199 max: 5.06221
diagonal:  Solving for T, Initial residual = 0, Final residual = 0, No Iterations 0
diagonal:  Solving for T, Initial residual = 0, Final residual = 0, No Iterations 0
diagonal:  Solving for T, Initial residual = 0, Final residual = 0, No Iterations 0
diagonal:  Solving for T, Initial residual = 0, Final residual = 0, No Iterations 0
 T goes from min(T) [0 0 0 0 0 0 0] -6.42796e+13 to max(T) [0 0 0 0 0 0 0] 6.51064e+13

ExecutionTime = 12.85 s  ClockTime = 266 s

Time = 0.25
Courant Number mean: 2.24825 max: 5.08121
diagonal:  Solving for T, Initial residual = 0, Final residual = 0, No Iterations 0
diagonal:  Solving for T, Initial residual = 0, Final residual = 0, No Iterations 0
diagonal:  Solving for T, Initial residual = 0, Final residual = 0, No Iterations 0
diagonal:  Solving for T, Initial residual = 0, Final residual = 0, No Iterations 0
 T goes from min(T) [0 0 0 0 0 0 0] -1.37831e+16 to max(T) [0 0 0 0 0 0 0] 1.36933e+16

ExecutionTime = 13.39 s  ClockTime = 276 s

Time = 0.275
Courant Number mean: 2.23372 max: 5.09849
diagonal:  Solving for T, Initial residual = 0, Final residual = 0, No Iterations 0
diagonal:  Solving for T, Initial residual = 0, Final residual = 0, No Iterations 0
diagonal:  Solving for T, Initial residual = 0, Final residual = 0, No Iterations 0
diagonal:  Solving for T, Initial residual = 0, Final residual = 0, No Iterations 0
 T goes from min(T) [0 0 0 0 0 0 0] -3.46782e+18 to max(T) [0 0 0 0 0 0 0] 3.52413e+18

ExecutionTime = 13.91 s  ClockTime = 286 s

Time = 0.3
Courant Number mean: 2.21846 max: 5.11338
diagonal:  Solving for T, Initial residual = 0, Final residual = 0, No Iterations 0
diagonal:  Solving for T, Initial residual = 0, Final residual = 0, No Iterations 0
diagonal:  Solving for T, Initial residual = 0, Final residual = 0, No Iterations 0
diagonal:  Solving for T, Initial residual = 0, Final residual = 0, No Iterations 0
 T goes from min(T) [0 0 0 0 0 0 0] -8.69991e+20 to max(T) [0 0 0 0 0 0 0] 9.23612e+20

ExecutionTime = 14.43 s  ClockTime = 296 s

Time = 0.325
Courant Number mean: 2.20253 max: 5.12675
diagonal:  Solving for T, Initial residual = 0, Final residual = 0, No Iterations 0
diagonal:  Solving for T, Initial residual = 0, Final residual = 0, No Iterations 0
diagonal:  Solving for T, Initial residual = 0, Final residual = 0, No Iterations 0
diagonal:  Solving for T, Initial residual = 0, Final residual = 0, No Iterations 0
 T goes from min(T) [0 0 0 0 0 0 0] -2.06493e+23 to max(T) [0 0 0 0 0 0 0] 2.22754e+23

ExecutionTime = 14.95 s  ClockTime = 306 s

Time = 0.35
Courant Number mean: 2.18599 max: 5.13903
diagonal:  Solving for T, Initial residual = 0, Final residual = 0, No Iterations 0
diagonal:  Solving for T, Initial residual = 0, Final residual = 0, No Iterations 0
diagonal:  Solving for T, Initial residual = 0, Final residual = 0, No Iterations 0
diagonal:  Solving for T, Initial residual = 0, Final residual = 0, No Iterations 0
 T goes from min(T) [0 0 0 0 0 0 0] -5.68642e+25 to max(T) [0 0 0 0 0 0 0] 5.20378e+25

ExecutionTime = 15.48 s  ClockTime = 316 s

Time = 0.375
Courant Number mean: 2.16891 max: 5.14885
diagonal:  Solving for T, Initial residual = 0, Final residual = 0, No Iterations 0
diagonal:  Solving for T, Initial residual = 0, Final residual = 0, No Iterations 0
diagonal:  Solving for T, Initial residual = 0, Final residual = 0, No Iterations 0
diagonal:  Solving for T, Initial residual = 0, Final residual = 0, No Iterations 0
 T goes from min(T) [0 0 0 0 0 0 0] -1.53321e+28 to max(T) [0 0 0 0 0 0 0] 1.48571e+28

ExecutionTime = 16 s  ClockTime = 326 s

Time = 0.4
Courant Number mean: 2.15132 max: 5.15757
diagonal:  Solving for T, Initial residual = 0, Final residual = 0, No Iterations 0
diagonal:  Solving for T, Initial residual = 0, Final residual = 0, No Iterations 0
diagonal:  Solving for T, Initial residual = 0, Final residual = 0, No Iterations 0
diagonal:  Solving for T, Initial residual = 0, Final residual = 0, No Iterations 0
 T goes from min(T) [0 0 0 0 0 0 0] -3.69996e+30 to max(T) [0 0 0 0 0 0 0] 3.86934e+30

ExecutionTime = 16.55 s  ClockTime = 337 s

Time = 0.425
Courant Number mean: 2.13326 max: 5.16428
diagonal:  Solving for T, Initial residual = 0, Final residual = 0, No Iterations 0
diagonal:  Solving for T, Initial residual = 0, Final residual = 0, No Iterations 0
diagonal:  Solving for T, Initial residual = 0, Final residual = 0, No Iterations 0
diagonal:  Solving for T, Initial residual = 0, Final residual = 0, No Iterations 0
 T goes from min(T) [0 0 0 0 0 0 0] -8.61459e+32 to max(T) [0 0 0 0 0 0 0] 8.98002e+32

ExecutionTime = 17.08 s  ClockTime = 346 s

Time = 0.45
Courant Number mean: 2.11475 max: 5.16846
diagonal:  Solving for T, Initial residual = 0, Final residual = 0, No Iterations 0
diagonal:  Solving for T, Initial residual = 0, Final residual = 0, No Iterations 0
diagonal:  Solving for T, Initial residual = 0, Final residual = 0, No Iterations 0
diagonal:  Solving for T, Initial residual = 0, Final residual = 0, No Iterations 0
 T goes from min(T) [0 0 0 0 0 0 0] -2.42543e+35 to max(T) [0 0 0 0 0 0 0] 2.26164e+35

ExecutionTime = 17.6 s  ClockTime = 356 s

Time = 0.475
Courant Number mean: 2.09586 max: 5.17213
diagonal:  Solving for T, Initial residual = 0, Final residual = 0, No Iterations 0
diagonal:  Solving for T, Initial residual = 0, Final residual = 0, No Iterations 0
diagonal:  Solving for T, Initial residual = 0, Final residual = 0, No Iterations 0
diagonal:  Solving for T, Initial residual = 0, Final residual = 0, No Iterations 0
 T goes from min(T) [0 0 0 0 0 0 0] -6.11388e+37 to max(T) [0 0 0 0 0 0 0] 6.26074e+37

ExecutionTime = 18.13 s  ClockTime = 366 s

Time = 0.5
Courant Number mean: 2.07659 max: 5.1735
diagonal:  Solving for T, Initial residual = 0, Final residual = 0, No Iterations 0
diagonal:  Solving for T, Initial residual = 0, Final residual = 0, No Iterations 0
diagonal:  Solving for T, Initial residual = 0, Final residual = 0, No Iterations 0
diagonal:  Solving for T, Initial residual = 0, Final residual = 0, No Iterations 0
 T goes from min(T) [0 0 0 0 0 0 0] -1.46258e+40 to max(T) [0 0 0 0 0 0 0] 1.53688e+40

ExecutionTime = 18.66 s  ClockTime = 374 s

Time = 0.525
Courant Number mean: 2.057 max: 5.17229
diagonal:  Solving for T, Initial residual = 0, Final residual = 0, No Iterations 0
diagonal:  Solving for T, Initial residual = 0, Final residual = 0, No Iterations 0
diagonal:  Solving for T, Initial residual = 0, Final residual = 0, No Iterations 0
diagonal:  Solving for T, Initial residual = 0, Final residual = 0, No Iterations 0
 T goes from min(T) [0 0 0 0 0 0 0] -3.46521e+42 to max(T) [0 0 0 0 0 0 0] 3.30663e+42

ExecutionTime = 19.19 s  ClockTime = 383 s

Time = 0.55
Courant Number mean: 2.0371 max: 5.16998
diagonal:  Solving for T, Initial residual = 0, Final residual = 0, No Iterations 0
diagonal:  Solving for T, Initial residual = 0, Final residual = 0, No Iterations 0
diagonal:  Solving for T, Initial residual = 0, Final residual = 0, No Iterations 0
diagonal:  Solving for T, Initial residual = 0, Final residual = 0, No Iterations 0
 T goes from min(T) [0 0 0 0 0 0 0] -8.75701e+44 to max(T) [0 0 0 0 0 0 0] 9.05666e+44

ExecutionTime = 19.69 s  ClockTime = 390 s

Time = 0.575
Courant Number mean: 2.01694 max: 5.1659
diagonal:  Solving for T, Initial residual = 0, Final residual = 0, No Iterations 0
diagonal:  Solving for T, Initial residual = 0, Final residual = 0, No Iterations 0
diagonal:  Solving for T, Initial residual = 0, Final residual = 0, No Iterations 0
diagonal:  Solving for T, Initial residual = 0, Final residual = 0, No Iterations 0
 T goes from min(T) [0 0 0 0 0 0 0] -2.25377e+47 to max(T) [0 0 0 0 0 0 0] 2.32393e+47

ExecutionTime = 20.23 s  ClockTime = 399 s

Time = 0.6
Courant Number mean: 1.99652 max: 5.15923
diagonal:  Solving for T, Initial residual = 0, Final residual = 0, No Iterations 0
diagonal:  Solving for T, Initial residual = 0, Final residual = 0, No Iterations 0
diagonal:  Solving for T, Initial residual = 0, Final residual = 0, No Iterations 0
diagonal:  Solving for T, Initial residual = 0, Final residual = 0, No Iterations 0
 T goes from min(T) [0 0 0 0 0 0 0] -5.59613e+49 to max(T) [0 0 0 0 0 0 0] 5.21385e+49

ExecutionTime = 20.78 s  ClockTime = 407 s

Time = 0.625
Courant Number mean: 1.97589 max: 5.15099
diagonal:  Solving for T, Initial residual = 0, Final residual = 0, No Iterations 0
diagonal:  Solving for T, Initial residual = 0, Final residual = 0, No Iterations 0
diagonal:  Solving for T, Initial residual = 0, Final residual = 0, No Iterations 0
diagonal:  Solving for T, Initial residual = 0, Final residual = 0, No Iterations 0
 T goes from min(T) [0 0 0 0 0 0 0] -1.20451e+52 to max(T) [0 0 0 0 0 0 0] 1.21848e+52

ExecutionTime = 21.34 s  ClockTime = 415 s

Time = 0.65
Courant Number mean: 1.95508 max: 5.14142
diagonal:  Solving for T, Initial residual = 0, Final residual = 0, No Iterations 0
diagonal:  Solving for T, Initial residual = 0, Final residual = 0, No Iterations 0
diagonal:  Solving for T, Initial residual = 0, Final residual = 0, No Iterations 0
diagonal:  Solving for T, Initial residual = 0, Final residual = 0, No Iterations 0
 T goes from min(T) [0 0 0 0 0 0 0] -3.06876e+54 to max(T) [0 0 0 0 0 0 0] 3.06728e+54

ExecutionTime = 21.86 s  ClockTime = 423 s

Time = 0.675
Courant Number mean: 1.93409 max: 5.12929
diagonal:  Solving for T, Initial residual = 0, Final residual = 0, No Iterations 0
diagonal:  Solving for T, Initial residual = 0, Final residual = 0, No Iterations 0
diagonal:  Solving for T, Initial residual = 0, Final residual = 0, No Iterations 0
diagonal:  Solving for T, Initial residual = 0, Final residual = 0, No Iterations 0
 T goes from min(T) [0 0 0 0 0 0 0] -7.83919e+56 to max(T) [0 0 0 0 0 0 0] 7.4317e+56

ExecutionTime = 22.43 s  ClockTime = 431 s

Time = 0.7
Courant Number mean: 1.913 max: 5.11526
diagonal:  Solving for T, Initial residual = 0, Final residual = 0, No Iterations 0
diagonal:  Solving for T, Initial residual = 0, Final residual = 0, No Iterations 0
diagonal:  Solving for T, Initial residual = 0, Final residual = 0, No Iterations 0
diagonal:  Solving for T, Initial residual = 0, Final residual = 0, No Iterations 0
 T goes from min(T) [0 0 0 0 0 0 0] -1.72686e+59 to max(T) [0 0 0 0 0 0 0] 1.81878e+59

ExecutionTime = 22.99 s  ClockTime = 440 s

Time = 0.725
Courant Number mean: 1.89182 max: 5.10026
diagonal:  Solving for T, Initial residual = 0, Final residual = 0, No Iterations 0
diagonal:  Solving for T, Initial residual = 0, Final residual = 0, No Iterations 0
diagonal:  Solving for T, Initial residual = 0, Final residual = 0, No Iterations 0
diagonal:  Solving for T, Initial residual = 0, Final residual = 0, No Iterations 0
 T goes from min(T) [0 0 0 0 0 0 0] -4.01067e+61 to max(T) [0 0 0 0 0 0 0] 4.27882e+61

ExecutionTime = 23.52 s  ClockTime = 448 s

Time = 0.75
Courant Number mean: 1.87059 max: 5.08273
diagonal:  Solving for T, Initial residual = 0, Final residual = 0, No Iterations 0
diagonal:  Solving for T, Initial residual = 0, Final residual = 0, No Iterations 0
diagonal:  Solving for T, Initial residual = 0, Final residual = 0, No Iterations 0
diagonal:  Solving for T, Initial residual = 0, Final residual = 0, No Iterations 0
 T goes from min(T) [0 0 0 0 0 0 0] -1.0251e+64 to max(T) [0 0 0 0 0 0 0] 9.95612e+63

ExecutionTime = 24.05 s  ClockTime = 456 s

Time = 0.775
Courant Number mean: 1.84934 max: 5.06424
diagonal:  Solving for T, Initial residual = 0, Final residual = 0, No Iterations 0
diagonal:  Solving for T, Initial residual = 0, Final residual = 0, No Iterations 0
diagonal:  Solving for T, Initial residual = 0, Final residual = 0, No Iterations 0
diagonal:  Solving for T, Initial residual = 0, Final residual = 0, No Iterations 0
 T goes from min(T) [0 0 0 0 0 0 0] -2.23469e+66 to max(T) [0 0 0 0 0 0 0] 2.23359e+66

ExecutionTime = 24.58 s  ClockTime = 464 s

Time = 0.8
Courant Number mean: 1.82811 max: 5.04358
diagonal:  Solving for T, Initial residual = 0, Final residual = 0, No Iterations 0
diagonal:  Solving for T, Initial residual = 0, Final residual = 0, No Iterations 0
diagonal:  Solving for T, Initial residual = 0, Final residual = 0, No Iterations 0
diagonal:  Solving for T, Initial residual = 0, Final residual = 0, No Iterations 0
 T goes from min(T) [0 0 0 0 0 0 0] -4.68806e+68 to max(T) [0 0 0 0 0 0 0] 4.56623e+68

ExecutionTime = 25.11 s  ClockTime = 472 s

Time = 0.825
Courant Number mean: 1.80694 max: 5.02102
diagonal:  Solving for T, Initial residual = 0, Final residual = 0, No Iterations 0
diagonal:  Solving for T, Initial residual = 0, Final residual = 0, No Iterations 0
diagonal:  Solving for T, Initial residual = 0, Final residual = 0, No Iterations 0
diagonal:  Solving for T, Initial residual = 0, Final residual = 0, No Iterations 0
 T goes from min(T) [0 0 0 0 0 0 0] -9.15184e+70 to max(T) [0 0 0 0 0 0 0] 9.20698e+70

ExecutionTime = 25.65 s  ClockTime = 480 s

Time = 0.85
Courant Number mean: 1.78589 max: 4.99764
diagonal:  Solving for T, Initial residual = 0, Final residual = 0, No Iterations 0
diagonal:  Solving for T, Initial residual = 0, Final residual = 0, No Iterations 0
diagonal:  Solving for T, Initial residual = 0, Final residual = 0, No Iterations 0
diagonal:  Solving for T, Initial residual = 0, Final residual = 0, No Iterations 0
 T goes from min(T) [0 0 0 0 0 0 0] -1.62322e+73 to max(T) [0 0 0 0 0 0 0] 1.68251e+73

ExecutionTime = 26.2 s  ClockTime = 488 s

Time = 0.875
Courant Number mean: 1.76501 max: 4.97182
diagonal:  Solving for T, Initial residual = 0, Final residual = 0, No Iterations 0
diagonal:  Solving for T, Initial residual = 0, Final residual = 0, No Iterations 0
diagonal:  Solving for T, Initial residual = 0, Final residual = 0, No Iterations 0
diagonal:  Solving for T, Initial residual = 0, Final residual = 0, No Iterations 0
 T goes from min(T) [0 0 0 0 0 0 0] -2.7336e+75 to max(T) [0 0 0 0 0 0 0] 2.53575e+75

ExecutionTime = 26.75 s  ClockTime = 496 s

Time = 0.9
Courant Number mean: 1.74436 max: 4.94426
diagonal:  Solving for T, Initial residual = 0, Final residual = 0, No Iterations 0
diagonal:  Solving for T, Initial residual = 0, Final residual = 0, No Iterations 0
diagonal:  Solving for T, Initial residual = 0, Final residual = 0, No Iterations 0
diagonal:  Solving for T, Initial residual = 0, Final residual = 0, No Iterations 0
 T goes from min(T) [0 0 0 0 0 0 0] -4.29213e+77 to max(T) [0 0 0 0 0 0 0] 3.93331e+77

ExecutionTime = 27.31 s  ClockTime = 505 s

Time = 0.925
Courant Number mean: 1.72399 max: 4.91585
diagonal:  Solving for T, Initial residual = 0, Final residual = 0, No Iterations 0
diagonal:  Solving for T, Initial residual = 0, Final residual = 0, No Iterations 0
diagonal:  Solving for T, Initial residual = 0, Final residual = 0, No Iterations 0
diagonal:  Solving for T, Initial residual = 0, Final residual = 0, No Iterations 0
 T goes from min(T) [0 0 0 0 0 0 0] -6.16908e+79 to max(T) [0 0 0 0 0 0 0] 6.55377e+79

ExecutionTime = 27.88 s  ClockTime = 513 s

Time = 0.95
Courant Number mean: 1.70398 max: 4.8851
diagonal:  Solving for T, Initial residual = 0, Final residual = 0, No Iterations 0
diagonal:  Solving for T, Initial residual = 0, Final residual = 0, No Iterations 0
diagonal:  Solving for T, Initial residual = 0, Final residual = 0, No Iterations 0
diagonal:  Solving for T, Initial residual = 0, Final residual = 0, No Iterations 0
 T goes from min(T) [0 0 0 0 0 0 0] -9.51927e+81 to max(T) [0 0 0 0 0 0 0] 9.16356e+81

ExecutionTime = 28.49 s  ClockTime = 522 s

Time = 0.975
Courant Number mean: 1.68438 max: 4.85295
diagonal:  Solving for T, Initial residual = 0, Final residual = 0, No Iterations 0
diagonal:  Solving for T, Initial residual = 0, Final residual = 0, No Iterations 0
diagonal:  Solving for T, Initial residual = 0, Final residual = 0, No Iterations 0
diagonal:  Solving for T, Initial residual = 0, Final residual = 0, No Iterations 0
 T goes from min(T) [0 0 0 0 0 0 0] -1.21447e+84 to max(T) [0 0 0 0 0 0 0] 1.29476e+84

ExecutionTime = 29.02 s  ClockTime = 530 s

Time = 1
Courant Number mean: 1.66532 max: 4.81782
diagonal:  Solving for T, Initial residual = 0, Final residual = 0, No Iterations 0
diagonal:  Solving for T, Initial residual = 0, Final residual = 0, No Iterations 0
diagonal:  Solving for T, Initial residual = 0, Final residual = 0, No Iterations 0
diagonal:  Solving for T, Initial residual = 0, Final residual = 0, No Iterations 0
 T goes from min(T) [0 0 0 0 0 0 0] -1.56401e+86 to max(T) [0 0 0 0 0 0 0] 1.40617e+86

ExecutionTime = 29.56 s  ClockTime = 538 s

Time = 1.025
Courant Number mean: 1.64687 max: 4.7767
diagonal:  Solving for T, Initial residual = 0, Final residual = 0, No Iterations 0
diagonal:  Solving for T, Initial residual = 0, Final residual = 0, No Iterations 0
diagonal:  Solving for T, Initial residual = 0, Final residual = 0, No Iterations 0
diagonal:  Solving for T, Initial residual = 0, Final residual = 0, No Iterations 0
 T goes from min(T) [0 0 0 0 0 0 0] -1.68975e+88 to max(T) [0 0 0 0 0 0 0] 1.64672e+88

ExecutionTime = 30.08 s  ClockTime = 546 s

Time = 1.05
Courant Number mean: 1.6292 max: 4.72899
diagonal:  Solving for T, Initial residual = 0, Final residual = 0, No Iterations 0
diagonal:  Solving for T, Initial residual = 0, Final residual = 0, No Iterations 0
diagonal:  Solving for T, Initial residual = 0, Final residual = 0, No Iterations 0
diagonal:  Solving for T, Initial residual = 0, Final residual = 0, No Iterations 0
 T goes from min(T) [0 0 0 0 0 0 0] -1.73346e+90 to max(T) [0 0 0 0 0 0 0] 1.94735e+90

ExecutionTime = 30.6 s  ClockTime = 554 s

Time = 1.075
Courant Number mean: 1.61261 max: 4.67532
diagonal:  Solving for T, Initial residual = 0, Final residual = 0, No Iterations 0
diagonal:  Solving for T, Initial residual = 0, Final residual = 0, No Iterations 0
diagonal:  Solving for T, Initial residual = 0, Final residual = 0, No Iterations 0
diagonal:  Solving for T, Initial residual = 0, Final residual = 0, No Iterations 0
 T goes from min(T) [0 0 0 0 0 0 0] -1.96541e+92 to max(T) [0 0 0 0 0 0 0] 1.8068e+92

ExecutionTime = 31.23 s  ClockTime = 564 s

Time = 1.1
Courant Number mean: 1.59745 max: 4.61712
diagonal:  Solving for T, Initial residual = 0, Final residual = 0, No Iterations 0
diagonal:  Solving for T, Initial residual = 0, Final residual = 0, No Iterations 0
diagonal:  Solving for T, Initial residual = 0, Final residual = 0, No Iterations 0
diagonal:  Solving for T, Initial residual = 0, Final residual = 0, No Iterations 0
 T goes from min(T) [0 0 0 0 0 0 0] -1.66537e+94 to max(T) [0 0 0 0 0 0 0] 1.71852e+94

ExecutionTime = 31.85 s  ClockTime = 573 s

Time = 1.125
Courant Number mean: 1.58376 max: 4.55327
diagonal:  Solving for T, Initial residual = 0, Final residual = 0, No Iterations 0
diagonal:  Solving for T, Initial residual = 0, Final residual = 0, No Iterations 0
diagonal:  Solving for T, Initial residual = 0, Final residual = 0, No Iterations 0
diagonal:  Solving for T, Initial residual = 0, Final residual = 0, No Iterations 0
 T goes from min(T) [0 0 0 0 0 0 0] -1.28419e+96 to max(T) [0 0 0 0 0 0 0] 1.3154e+96

ExecutionTime = 32.39 s  ClockTime = 581 s

Time = 1.15
Courant Number mean: 1.57158 max: 4.48415
diagonal:  Solving for T, Initial residual = 0, Final residual = 0, No Iterations 0
diagonal:  Solving for T, Initial residual = 0, Final residual = 0, No Iterations 0
diagonal:  Solving for T, Initial residual = 0, Final residual = 0, No Iterations 0
diagonal:  Solving for T, Initial residual = 0, Final residual = 0, No Iterations 0
 T goes from min(T) [0 0 0 0 0 0 0] -9.61131e+97 to max(T) [0 0 0 0 0 0 0] 8.29566e+97

ExecutionTime = 32.91 s  ClockTime = 589 s

Time = 1.175
Courant Number mean: 1.56088 max: 4.41174
diagonal:  Solving for T, Initial residual = 0, Final residual = 0, No Iterations 0
diagonal:  Solving for T, Initial residual = 0, Final residual = 0, No Iterations 0
diagonal:  Solving for T, Initial residual = 0, Final residual = 0, No Iterations 0
diagonal:  Solving for T, Initial residual = 0, Final residual = 0, No Iterations 0
 T goes from min(T) [0 0 0 0 0 0 0] -6.41259e+99 to max(T) [0 0 0 0 0 0 0] 7.2643e+99

ExecutionTime = 33.45 s  ClockTime = 597 s

Time = 1.2
Courant Number mean: 1.55173 max: 4.33495
diagonal:  Solving for T, Initial residual = 0, Final residual = 0, No Iterations 0
diagonal:  Solving for T, Initial residual = 0, Final residual = 0, No Iterations 0
diagonal:  Solving for T, Initial residual = 0, Final residual = 0, No Iterations 0
diagonal:  Solving for T, Initial residual = 0, Final residual = 0, No Iterations 0
 T goes from min(T) [0 0 0 0 0 0 0] -4.71437e+101 to max(T) [0 0 0 0 0 0 0] 4.3271e+101

ExecutionTime = 33.98 s  ClockTime = 605 s

Time = 1.225
Courant Number mean: 1.5441 max: 4.25406
diagonal:  Solving for T, Initial residual = 0, Final residual = 0, No Iterations 0
diagonal:  Solving for T, Initial residual = 0, Final residual = 0, No Iterations 0
diagonal:  Solving for T, Initial residual = 0, Final residual = 0, No Iterations 0
diagonal:  Solving for T, Initial residual = 0, Final residual = 0, No Iterations 0
 T goes from min(T) [0 0 0 0 0 0 0] -2.49043e+103 to max(T) [0 0 0 0 0 0 0] 2.5919e+103

ExecutionTime = 34.51 s  ClockTime = 613 s

Time = 1.25
Courant Number mean: 1.53798 max: 4.17078
diagonal:  Solving for T, Initial residual = 0, Final residual = 0, No Iterations 0
diagonal:  Solving for T, Initial residual = 0, Final residual = 0, No Iterations 0
diagonal:  Solving for T, Initial residual = 0, Final residual = 0, No Iterations 0
diagonal:  Solving for T, Initial residual = 0, Final residual = 0, No Iterations 0
 T goes from min(T) [0 0 0 0 0 0 0] -1.19108e+105 to max(T) [0 0 0 0 0 0 0] 1.20379e+105

ExecutionTime = 35.09 s  ClockTime = 621 s

Time = 1.275
Courant Number mean: 1.53337 max: 4.18348
diagonal:  Solving for T, Initial residual = 0, Final residual = 0, No Iterations 0
diagonal:  Solving for T, Initial residual = 0, Final residual = 0, No Iterations 0
diagonal:  Solving for T, Initial residual = 0, Final residual = 0, No Iterations 0
diagonal:  Solving for T, Initial residual = 0, Final residual = 0, No Iterations 0
 T goes from min(T) [0 0 0 0 0 0 0] -4.7746e+106 to max(T) [0 0 0 0 0 0 0] 4.71509e+106

ExecutionTime = 35.65 s  ClockTime = 630 s

Time = 1.3
Courant Number mean: 1.53027 max: 4.19097
diagonal:  Solving for T, Initial residual = 0, Final residual = 0, No Iterations 0
diagonal:  Solving for T, Initial residual = 0, Final residual = 0, No Iterations 0
diagonal:  Solving for T, Initial residual = 0, Final residual = 0, No Iterations 0
diagonal:  Solving for T, Initial residual = 0, Final residual = 0, No Iterations 0
 T goes from min(T) [0 0 0 0 0 0 0] -1.99211e+108 to max(T) [0 0 0 0 0 0 0] 2.07669e+108

ExecutionTime = 36.26 s  ClockTime = 639 s

Time = 1.325
Courant Number mean: 1.52865 max: 4.19201
diagonal:  Solving for T, Initial residual = 0, Final residual = 0, No Iterations 0
diagonal:  Solving for T, Initial residual = 0, Final residual = 0, No Iterations 0
diagonal:  Solving for T, Initial residual = 0, Final residual = 0, No Iterations 0
diagonal:  Solving for T, Initial residual = 0, Final residual = 0, No Iterations 0
 T goes from min(T) [0 0 0 0 0 0 0] -8.31728e+109 to max(T) [0 0 0 0 0 0 0] 7.89194e+109

ExecutionTime = 36.81 s  ClockTime = 647 s

Time = 1.35
Courant Number mean: 1.52845 max: 4.18666
diagonal:  Solving for T, Initial residual = 0, Final residual = 0, No Iterations 0
diagonal:  Solving for T, Initial residual = 0, Final residual = 0, No Iterations 0
diagonal:  Solving for T, Initial residual = 0, Final residual = 0, No Iterations 0
diagonal:  Solving for T, Initial residual = 0, Final residual = 0, No Iterations 0
 T goes from min(T) [0 0 0 0 0 0 0] -2.54615e+111 to max(T) [0 0 0 0 0 0 0] 2.77905e+111

ExecutionTime = 37.34 s  ClockTime = 655 s

Time = 1.375
Courant Number mean: 1.5296 max: 4.1763
diagonal:  Solving for T, Initial residual = 0, Final residual = 0, No Iterations 0
diagonal:  Solving for T, Initial residual = 0, Final residual = 0, No Iterations 0
diagonal:  Solving for T, Initial residual = 0, Final residual = 0, No Iterations 0
diagonal:  Solving for T, Initial residual = 0, Final residual = 0, No Iterations 0
 T goes from min(T) [0 0 0 0 0 0 0] -7.6034e+112 to max(T) [0 0 0 0 0 0 0] 6.59024e+112

ExecutionTime = 37.88 s  ClockTime = 663 s

Time = 1.4
Courant Number mean: 1.53205 max: 4.15986
diagonal:  Solving for T, Initial residual = 0, Final residual = 0, No Iterations 0
diagonal:  Solving for T, Initial residual = 0, Final residual = 0, No Iterations 0
diagonal:  Solving for T, Initial residual = 0, Final residual = 0, No Iterations 0
diagonal:  Solving for T, Initial residual = 0, Final residual = 0, No Iterations 0
 T goes from min(T) [0 0 0 0 0 0 0] -1.46787e+114 to max(T) [0 0 0 0 0 0 0] 1.65606e+114

ExecutionTime = 38.43 s  ClockTime = 672 s

Time = 1.425
Courant Number mean: 1.5357 max: 4.13734
diagonal:  Solving for T, Initial residual = 0, Final residual = 0, No Iterations 0
diagonal:  Solving for T, Initial residual = 0, Final residual = 0, No Iterations 0
diagonal:  Solving for T, Initial residual = 0, Final residual = 0, No Iterations 0
diagonal:  Solving for T, Initial residual = 0, Final residual = 0, No Iterations 0
 T goes from min(T) [0 0 0 0 0 0 0] -3.72305e+115 to max(T) [0 0 0 0 0 0 0] 3.38138e+115

ExecutionTime = 38.99 s  ClockTime = 680 s

Time = 1.45
Courant Number mean: 1.54034 max: 4.10943
diagonal:  Solving for T, Initial residual = 0, Final residual = 0, No Iterations 0
diagonal:  Solving for T, Initial residual = 0, Final residual = 0, No Iterations 0
diagonal:  Solving for T, Initial residual = 0, Final residual = 0, No Iterations 0
diagonal:  Solving for T, Initial residual = 0, Final residual = 0, No Iterations 0
 T goes from min(T) [0 0 0 0 0 0 0] -7.622e+116 to max(T) [0 0 0 0 0 0 0] 8.47621e+116

ExecutionTime = 39.57 s  ClockTime = 689 s

Time = 1.475
Courant Number mean: 1.54584 max: 4.07659
diagonal:  Solving for T, Initial residual = 0, Final residual = 0, No Iterations 0
diagonal:  Solving for T, Initial residual = 0, Final residual = 0, No Iterations 0
diagonal:  Solving for T, Initial residual = 0, Final residual = 0, No Iterations 0
diagonal:  Solving for T, Initial residual = 0, Final residual = 0, No Iterations 0
 T goes from min(T) [0 0 0 0 0 0 0] -4.35945e+118 to max(T) [0 0 0 0 0 0 0] 4.32169e+118

ExecutionTime = 40.12 s  ClockTime = 697 s

Time = 1.5
Courant Number mean: 1.55212 max: 4.03825
diagonal:  Solving for T, Initial residual = 0, Final residual = 0, No Iterations 0
diagonal:  Solving for T, Initial residual = 0, Final residual = 0, No Iterations 0
diagonal:  Solving for T, Initial residual = 0, Final residual = 0, No Iterations 0
diagonal:  Solving for T, Initial residual = 0, Final residual = 0, No Iterations 0
 T goes from min(T) [0 0 0 0 0 0 0] -4.17992e+120 to max(T) [0 0 0 0 0 0 0] 3.87727e+120

ExecutionTime = 40.66 s  ClockTime = 705 s

Time = 1.525
Courant Number mean: 1.55907 max: 3.99468
diagonal:  Solving for T, Initial residual = 0, Final residual = 0, No Iterations 0
diagonal:  Solving for T, Initial residual = 0, Final residual = 0, No Iterations 0
diagonal:  Solving for T, Initial residual = 0, Final residual = 0, No Iterations 0
diagonal:  Solving for T, Initial residual = 0, Final residual = 0, No Iterations 0
 T goes from min(T) [0 0 0 0 0 0 0] -3.20419e+122 to max(T) [0 0 0 0 0 0 0] 3.35502e+122

ExecutionTime = 41.21 s  ClockTime = 713 s

Time = 1.55
Courant Number mean: 1.56661 max: 3.9493
diagonal:  Solving for T, Initial residual = 0, Final residual = 0, No Iterations 0
diagonal:  Solving for T, Initial residual = 0, Final residual = 0, No Iterations 0
diagonal:  Solving for T, Initial residual = 0, Final residual = 0, No Iterations 0
diagonal:  Solving for T, Initial residual = 0, Final residual = 0, No Iterations 0
 T goes from min(T) [0 0 0 0 0 0 0] -2.93755e+124 to max(T) [0 0 0 0 0 0 0] 2.76708e+124

ExecutionTime = 41.77 s  ClockTime = 722 s

Time = 1.575
Courant Number mean: 1.5746 max: 3.90225
diagonal:  Solving for T, Initial residual = 0, Final residual = 0, No Iterations 0
diagonal:  Solving for T, Initial residual = 0, Final residual = 0, No Iterations 0
diagonal:  Solving for T, Initial residual = 0, Final residual = 0, No Iterations 0
diagonal:  Solving for T, Initial residual = 0, Final residual = 0, No Iterations 0
 T goes from min(T) [0 0 0 0 0 0 0] -2.32176e+126 to max(T) [0 0 0 0 0 0 0] 2.47307e+126

ExecutionTime = 42.3 s  ClockTime = 729 s

Time = 1.6
Courant Number mean: 1.58297 max: 3.85397
diagonal:  Solving for T, Initial residual = 0, Final residual = 0, No Iterations 0
diagonal:  Solving for T, Initial residual = 0, Final residual = 0, No Iterations 0
diagonal:  Solving for T, Initial residual = 0, Final residual = 0, No Iterations 0
diagonal:  Solving for T, Initial residual = 0, Final residual = 0, No Iterations 0
 T goes from min(T) [0 0 0 0 0 0 0] -1.76224e+128 to max(T) [0 0 0 0 0 0 0] 1.82639e+128

ExecutionTime = 42.85 s  ClockTime = 737 s

Time = 1.625
Courant Number mean: 1.59167 max: 3.80514
diagonal:  Solving for T, Initial residual = 0, Final residual = 0, No Iterations 0
diagonal:  Solving for T, Initial residual = 0, Final residual = 0, No Iterations 0
diagonal:  Solving for T, Initial residual = 0, Final residual = 0, No Iterations 0
diagonal:  Solving for T, Initial residual = 0, Final residual = 0, No Iterations 0
 T goes from min(T) [0 0 0 0 0 0 0] -1.39712e+130 to max(T) [0 0 0 0 0 0 0] 1.47707e+130

ExecutionTime = 43.39 s  ClockTime = 744 s

Time = 1.65
Courant Number mean: 1.60067 max: 3.75484
diagonal:  Solving for T, Initial residual = 0, Final residual = 0, No Iterations 0
diagonal:  Solving for T, Initial residual = 0, Final residual = 0, No Iterations 0
diagonal:  Solving for T, Initial residual = 0, Final residual = 0, No Iterations 0
diagonal:  Solving for T, Initial residual = 0, Final residual = 0, No Iterations 0
 T goes from min(T) [0 0 0 0 0 0 0] -1.01582e+132 to max(T) [0 0 0 0 0 0 0] 1.08482e+132

ExecutionTime = 43.92 s  ClockTime = 751 s

Time = 1.675
Courant Number mean: 1.60993 max: 3.70372
diagonal:  Solving for T, Initial residual = 0, Final residual = 0, No Iterations 0
diagonal:  Solving for T, Initial residual = 0, Final residual = 0, No Iterations 0
diagonal:  Solving for T, Initial residual = 0, Final residual = 0, No Iterations 0
diagonal:  Solving for T, Initial residual = 0, Final residual = 0, No Iterations 0
 T goes from min(T) [0 0 0 0 0 0 0] -6.8813e+133 to max(T) [0 0 0 0 0 0 0] 6.59165e+133

ExecutionTime = 44.46 s  ClockTime = 758 s

Time = 1.7
Courant Number mean: 1.61942 max: 3.65186
diagonal:  Solving for T, Initial residual = 0, Final residual = 0, No Iterations 0
diagonal:  Solving for T, Initial residual = 0, Final residual = 0, No Iterations 0
diagonal:  Solving for T, Initial residual = 0, Final residual = 0, No Iterations 0
diagonal:  Solving for T, Initial residual = 0, Final residual = 0, No Iterations 0
 T goes from min(T) [0 0 0 0 0 0 0] -4.46174e+135 to max(T) [0 0 0 0 0 0 0] 4.68238e+135

ExecutionTime = 45 s  ClockTime = 765 s

Time = 1.725
Courant Number mean: 1.62913 max: 3.59885
diagonal:  Solving for T, Initial residual = 0, Final residual = 0, No Iterations 0
diagonal:  Solving for T, Initial residual = 0, Final residual = 0, No Iterations 0
diagonal:  Solving for T, Initial residual = 0, Final residual = 0, No Iterations 0
diagonal:  Solving for T, Initial residual = 0, Final residual = 0, No Iterations 0
 T goes from min(T) [0 0 0 0 0 0 0] -2.89945e+137 to max(T) [0 0 0 0 0 0 0] 2.78501e+137

ExecutionTime = 45.5 s  ClockTime = 771 s

Time = 1.75
Courant Number mean: 1.63905 max: 3.54567
diagonal:  Solving for T, Initial residual = 0, Final residual = 0, No Iterations 0
diagonal:  Solving for T, Initial residual = 0, Final residual = 0, No Iterations 0
diagonal:  Solving for T, Initial residual = 0, Final residual = 0, No Iterations 0
diagonal:  Solving for T, Initial residual = 0, Final residual = 0, No Iterations 0
 T goes from min(T) [0 0 0 0 0 0 0] -1.56857e+139 to max(T) [0 0 0 0 0 0 0] 1.51933e+139

ExecutionTime = 46.11 s  ClockTime = 779 s

Time = 1.775
Courant Number mean: 1.64917 max: 3.49139
diagonal:  Solving for T, Initial residual = 0, Final residual = 0, No Iterations 0
diagonal:  Solving for T, Initial residual = 0, Final residual = 0, No Iterations 0
diagonal:  Solving for T, Initial residual = 0, Final residual = 0, No Iterations 0
diagonal:  Solving for T, Initial residual = 0, Final residual = 0, No Iterations 0
 T goes from min(T) [0 0 0 0 0 0 0] -8.31687e+140 to max(T) [0 0 0 0 0 0 0] 8.03334e+140

ExecutionTime = 46.65 s  ClockTime = 786 s

Time = 1.8
Courant Number mean: 1.65946 max: 3.43612
diagonal:  Solving for T, Initial residual = 0, Final residual = 0, No Iterations 0
diagonal:  Solving for T, Initial residual = 0, Final residual = 0, No Iterations 0
diagonal:  Solving for T, Initial residual = 0, Final residual = 0, No Iterations 0
diagonal:  Solving for T, Initial residual = 0, Final residual = 0, No Iterations 0
 T goes from min(T) [0 0 0 0 0 0 0] -4.30822e+142 to max(T) [0 0 0 0 0 0 0] 4.03423e+142

ExecutionTime = 47.16 s  ClockTime = 793 s

Time = 1.825
Courant Number mean: 1.66989 max: 3.38019
diagonal:  Solving for T, Initial residual = 0, Final residual = 0, No Iterations 0
diagonal:  Solving for T, Initial residual = 0, Final residual = 0, No Iterations 0
diagonal:  Solving for T, Initial residual = 0, Final residual = 0, No Iterations 0
diagonal:  Solving for T, Initial residual = 0, Final residual = 0, No Iterations 0
 T goes from min(T) [0 0 0 0 0 0 0] -1.84239e+144 to max(T) [0 0 0 0 0 0 0] 1.92337e+144

ExecutionTime = 47.71 s  ClockTime = 800 s

Time = 1.85
Courant Number mean: 1.68042 max: 3.32402
diagonal:  Solving for T, Initial residual = 0, Final residual = 0, No Iterations 0
diagonal:  Solving for T, Initial residual = 0, Final residual = 0, No Iterations 0
diagonal:  Solving for T, Initial residual = 0, Final residual = 0, No Iterations 0
diagonal:  Solving for T, Initial residual = 0, Final residual = 0, No Iterations 0
 T goes from min(T) [0 0 0 0 0 0 0] -7.70788e+145 to max(T) [0 0 0 0 0 0 0] 7.45953e+145

ExecutionTime = 48.28 s  ClockTime = 807 s

Time = 1.875
Courant Number mean: 1.69102 max: 3.26709
diagonal:  Solving for T, Initial residual = 0, Final residual = 0, No Iterations 0
diagonal:  Solving for T, Initial residual = 0, Final residual = 0, No Iterations 0
diagonal:  Solving for T, Initial residual = 0, Final residual = 0, No Iterations 0
diagonal:  Solving for T, Initial residual = 0, Final residual = 0, No Iterations 0
 T goes from min(T) [0 0 0 0 0 0 0] -3.10084e+147 to max(T) [0 0 0 0 0 0 0] 3.14223e+147

ExecutionTime = 48.82 s  ClockTime = 814 s

Time = 1.9
Courant Number mean: 1.70161 max: 3.21018
diagonal:  Solving for T, Initial residual = 0, Final residual = 0, No Iterations 0
diagonal:  Solving for T, Initial residual = 0, Final residual = 0, No Iterations 0
diagonal:  Solving for T, Initial residual = 0, Final residual = 0, No Iterations 0
diagonal:  Solving for T, Initial residual = 0, Final residual = 0, No Iterations 0
 T goes from min(T) [0 0 0 0 0 0 0] -1.11949e+149 to max(T) [0 0 0 0 0 0 0] 1.15379e+149

ExecutionTime = 49.35 s  ClockTime = 821 s

Time = 1.925
Courant Number mean: 1.7121 max: 3.15279
diagonal:  Solving for T, Initial residual = 0, Final residual = 0, No Iterations 0
diagonal:  Solving for T, Initial residual = 0, Final residual = 0, No Iterations 0
diagonal:  Solving for T, Initial residual = 0, Final residual = 0, No Iterations 0
diagonal:  Solving for T, Initial residual = 0, Final residual = 0, No Iterations 0
 T goes from min(T) [0 0 0 0 0 0 0] -3.73097e+150 to max(T) [0 0 0 0 0 0 0] 3.39655e+150

ExecutionTime = 49.9 s  ClockTime = 828 s

Time = 1.95
Courant Number mean: 1.72236 max: 3.09489
diagonal:  Solving for T, Initial residual = 0, Final residual = 0, No Iterations 0
diagonal:  Solving for T, Initial residual = 0, Final residual = 0, No Iterations 0
diagonal:  Solving for T, Initial residual = 0, Final residual = 0, No Iterations 0
diagonal:  Solving for T, Initial residual = 0, Final residual = 0, No Iterations 0
 T goes from min(T) [0 0 0 0 0 0 0] -1.02499e+152 to max(T) [0 0 0 0 0 0 0] 1.06365e+152

ExecutionTime = 50.43 s  ClockTime = 835 s

Time = 1.975
Courant Number mean: 1.732 max: 3.03657
diagonal:  Solving for T, Initial residual = 0, Final residual = 0, No Iterations 0
diagonal:  Solving for T, Initial residual = 0, Final residual = 0, No Iterations 0
diagonal:  Solving for T, Initial residual = 0, Final residual = 0, No Iterations 0
diagonal:  Solving for T, Initial residual = 0, Final residual = 0, No Iterations 0
 T goes from min(T) [0 0 0 0 0 0 0] -3.20495e+153 to max(T) [0 0 0 0 0 0 0] 3.07556e+153

ExecutionTime = 50.97 s  ClockTime = 842 s

Time = 2
Courant Number mean: 1.7405 max: 2.97819
diagonal:  Solving for T, Initial residual = 0, Final residual = 0, No Iterations 0
diagonal:  Solving for T, Initial residual = 0, Final residual = 0, No Iterations 0
diagonal:  Solving for T, Initial residual = 0, Final residual = 0, No Iterations 0
diagonal:  Solving for T, Initial residual = 0, Final residual = 0, No Iterations 0
 T goes from min(T) [0 0 0 0 0 0 0] -8.18078e+154 to max(T) [0 0 0 0 0 0 0] 8.2998e+154

ExecutionTime = 51.56 s  ClockTime = 850 s

Time = 2.025
Courant Number mean: 1.74775 max: 2.92002
diagonal:  Solving for T, Initial residual = 0, Final residual = 0, No Iterations 0
diagonal:  Solving for T, Initial residual = 0, Final residual = 0, No Iterations 0
diagonal:  Solving for T, Initial residual = 0, Final residual = 0, No Iterations 0
diagonal:  Solving for T, Initial residual = 0, Final residual = 0, No Iterations 0
 T goes from min(T) [0 0 0 0 0 0 0] -1.72733e+156 to max(T) [0 0 0 0 0 0 0] 1.76094e+156

ExecutionTime = 52.09 s  ClockTime = 857 s

Time = 2.05
Courant Number mean: 1.75374 max: 2.86168
diagonal:  Solving for T, Initial residual = 0, Final residual = 0, No Iterations 0
diagonal:  Solving for T, Initial residual = 0, Final residual = 0, No Iterations 0
diagonal:  Solving for T, Initial residual = 0, Final residual = 0, No Iterations 0
diagonal:  Solving for T, Initial residual = 0, Final residual = 0, No Iterations 0
 T goes from min(T) [0 0 0 0 0 0 0] -3.68432e+157 to max(T) [0 0 0 0 0 0 0] 3.49948e+157

ExecutionTime = 52.73 s  ClockTime = 865 s

Time = 2.075
Courant Number mean: 1.75848 max: 2.80326
diagonal:  Solving for T, Initial residual = 0, Final residual = 0, No Iterations 0
diagonal:  Solving for T, Initial residual = 0, Final residual = 0, No Iterations 0
diagonal:  Solving for T, Initial residual = 0, Final residual = 0, No Iterations 0
diagonal:  Solving for T, Initial residual = 0, Final residual = 0, No Iterations 0
 T goes from min(T) [0 0 0 0 0 0 0] -7.5017e+158 to max(T) [0 0 0 0 0 0 0] 7.67477e+158

ExecutionTime = 53.26 s  ClockTime = 872 s

Time = 2.1
Courant Number mean: 1.76197 max: 2.7449
diagonal:  Solving for T, Initial residual = 0, Final residual = 0, No Iterations 0
diagonal:  Solving for T, Initial residual = 0, Final residual = 0, No Iterations 0
diagonal:  Solving for T, Initial residual = 0, Final residual = 0, No Iterations 0
diagonal:  Solving for T, Initial residual = 0, Final residual = 0, No Iterations 0
 T goes from min(T) [0 0 0 0 0 0 0] -1.33985e+160 to max(T) [0 0 0 0 0 0 0] 1.33992e+160

ExecutionTime = 53.8 s  ClockTime = 879 s

Time = 2.125
Courant Number mean: 1.76422 max: 2.68721
diagonal:  Solving for T, Initial residual = 0, Final residual = 0, No Iterations 0
diagonal:  Solving for T, Initial residual = 0, Final residual = 0, No Iterations 0
diagonal:  Solving for T, Initial residual = 0, Final residual = 0, No Iterations 0
diagonal:  Solving for T, Initial residual = 0, Final residual = 0, No Iterations 0
 T goes from min(T) [0 0 0 0 0 0 0] -1.97342e+161 to max(T) [0 0 0 0 0 0 0] 1.93147e+161

ExecutionTime = 54.34 s  ClockTime = 886 s

Time = 2.15
Courant Number mean: 1.76527 max: 2.62967
diagonal:  Solving for T, Initial residual = 0, Final residual = 0, No Iterations 0
diagonal:  Solving for T, Initial residual = 0, Final residual = 0, No Iterations 0
diagonal:  Solving for T, Initial residual = 0, Final residual = 0, No Iterations 0
diagonal:  Solving for T, Initial residual = 0, Final residual = 0, No Iterations 0
 T goes from min(T) [0 0 0 0 0 0 0] -2.98496e+162 to max(T) [0 0 0 0 0 0 0] 3.042e+162

ExecutionTime = 54.9 s  ClockTime = 893 s

Time = 2.175
Courant Number mean: 1.76513 max: 2.57238
diagonal:  Solving for T, Initial residual = 0, Final residual = 0, No Iterations 0
diagonal:  Solving for T, Initial residual = 0, Final residual = 0, No Iterations 0
diagonal:  Solving for T, Initial residual = 0, Final residual = 0, No Iterations 0
diagonal:  Solving for T, Initial residual = 0, Final residual = 0, No Iterations 0
 T goes from min(T) [0 0 0 0 0 0 0] -4.22319e+163 to max(T) [0 0 0 0 0 0 0] 4.04109e+163

ExecutionTime = 55.43 s  ClockTime = 900 s

Time = 2.2
Courant Number mean: 1.76387 max: 2.5155
diagonal:  Solving for T, Initial residual = 0, Final residual = 0, No Iterations 0
diagonal:  Solving for T, Initial residual = 0, Final residual = 0, No Iterations 0
diagonal:  Solving for T, Initial residual = 0, Final residual = 0, No Iterations 0
diagonal:  Solving for T, Initial residual = 0, Final residual = 0, No Iterations 0
 T goes from min(T) [0 0 0 0 0 0 0] -4.59673e+164 to max(T) [0 0 0 0 0 0 0] 4.76805e+164

ExecutionTime = 55.99 s  ClockTime = 907 s

Time = 2.225
Courant Number mean: 1.76153 max: 2.45947
diagonal:  Solving for T, Initial residual = 0, Final residual = 0, No Iterations 0
diagonal:  Solving for T, Initial residual = 0, Final residual = 0, No Iterations 0
diagonal:  Solving for T, Initial residual = 0, Final residual = 0, No Iterations 0
diagonal:  Solving for T, Initial residual = 0, Final residual = 0, No Iterations 0
 T goes from min(T) [0 0 0 0 0 0 0] -5.15254e+165 to max(T) [0 0 0 0 0 0 0] 4.95853e+165

ExecutionTime = 56.55 s  ClockTime = 915 s

Time = 2.25
Courant Number mean: 1.75816 max: 2.40407
diagonal:  Solving for T, Initial residual = 0, Final residual = 0, No Iterations 0
diagonal:  Solving for T, Initial residual = 0, Final residual = 0, No Iterations 0
diagonal:  Solving for T, Initial residual = 0, Final residual = 0, No Iterations 0
diagonal:  Solving for T, Initial residual = 0, Final residual = 0, No Iterations 0
 T goes from min(T) [0 0 0 0 0 0 0] -5.14024e+166 to max(T) [0 0 0 0 0 0 0] 5.29745e+166

ExecutionTime = 57.15 s  ClockTime = 923 s

Time = 2.275
Courant Number mean: 1.75385 max: 2.34974
diagonal:  Solving for T, Initial residual = 0, Final residual = 0, No Iterations 0
diagonal:  Solving for T, Initial residual = 0, Final residual = 0, No Iterations 0
diagonal:  Solving for T, Initial residual = 0, Final residual = 0, No Iterations 0
diagonal:  Solving for T, Initial residual = 0, Final residual = 0, No Iterations 0
 T goes from min(T) [0 0 0 0 0 0 0] -4.64706e+167 to max(T) [0 0 0 0 0 0 0] 4.59739e+167

ExecutionTime = 57.71 s  ClockTime = 930 s

Time = 2.3
Courant Number mean: 1.74865 max: 2.29605
diagonal:  Solving for T, Initial residual = 0, Final residual = 0, No Iterations 0
diagonal:  Solving for T, Initial residual = 0, Final residual = 0, No Iterations 0
diagonal:  Solving for T, Initial residual = 0, Final residual = 0, No Iterations 0
diagonal:  Solving for T, Initial residual = 0, Final residual = 0, No Iterations 0
 T goes from min(T) [0 0 0 0 0 0 0] -3.48348e+168 to max(T) [0 0 0 0 0 0 0] 3.55847e+168

ExecutionTime = 58.23 s  ClockTime = 937 s

Time = 2.325
Courant Number mean: 1.74266 max: 2.24381
diagonal:  Solving for T, Initial residual = 0, Final residual = 0, No Iterations 0
diagonal:  Solving for T, Initial residual = 0, Final residual = 0, No Iterations 0
diagonal:  Solving for T, Initial residual = 0, Final residual = 0, No Iterations 0
diagonal:  Solving for T, Initial residual = 0, Final residual = 0, No Iterations 0
 T goes from min(T) [0 0 0 0 0 0 0] -2.7669e+169 to max(T) [0 0 0 0 0 0 0] 2.70217e+169

ExecutionTime = 58.76 s  ClockTime = 943 s

Time = 2.35
Courant Number mean: 1.73595 max: 2.19254
diagonal:  Solving for T, Initial residual = 0, Final residual = 0, No Iterations 0
diagonal:  Solving for T, Initial residual = 0, Final residual = 0, No Iterations 0
diagonal:  Solving for T, Initial residual = 0, Final residual = 0, No Iterations 0
diagonal:  Solving for T, Initial residual = 0, Final residual = 0, No Iterations 0
 T goes from min(T) [0 0 0 0 0 0 0] -1.74031e+170 to max(T) [0 0 0 0 0 0 0] 1.74294e+170

ExecutionTime = 59.29 s  ClockTime = 950 s

Time = 2.375
Courant Number mean: 1.72863 max: 2.14294
diagonal:  Solving for T, Initial residual = 0, Final residual = 0, No Iterations 0
diagonal:  Solving for T, Initial residual = 0, Final residual = 0, No Iterations 0
diagonal:  Solving for T, Initial residual = 0, Final residual = 0, No Iterations 0
diagonal:  Solving for T, Initial residual = 0, Final residual = 0, No Iterations 0
 T goes from min(T) [0 0 0 0 0 0 0] -1.01161e+171 to max(T) [0 0 0 0 0 0 0] 9.90452e+170

ExecutionTime = 59.8 s  ClockTime = 957 s

Time = 2.4
Courant Number mean: 1.72078 max: 2.09491
diagonal:  Solving for T, Initial residual = 0, Final residual = 0, No Iterations 0
diagonal:  Solving for T, Initial residual = 0, Final residual = 0, No Iterations 0
diagonal:  Solving for T, Initial residual = 0, Final residual = 0, No Iterations 0
diagonal:  Solving for T, Initial residual = 0, Final residual = 0, No Iterations 0
 T goes from min(T) [0 0 0 0 0 0 0] -5.39893e+171 to max(T) [0 0 0 0 0 0 0] 5.52376e+171

ExecutionTime = 60.4 s  ClockTime = 965 s

Time = 2.425
Courant Number mean: 1.71251 max: 2.04864
diagonal:  Solving for T, Initial residual = 0, Final residual = 0, No Iterations 0
diagonal:  Solving for T, Initial residual = 0, Final residual = 0, No Iterations 0
diagonal:  Solving for T, Initial residual = 0, Final residual = 0, No Iterations 0
diagonal:  Solving for T, Initial residual = 0, Final residual = 0, No Iterations 0
 T goes from min(T) [0 0 0 0 0 0 0] -2.62148e+172 to max(T) [0 0 0 0 0 0 0] 2.53973e+172

ExecutionTime = 60.96 s  ClockTime = 972 s

Time = 2.45
Courant Number mean: 1.70392 max: 2.00442
diagonal:  Solving for T, Initial residual = 0, Final residual = 0, No Iterations 0
diagonal:  Solving for T, Initial residual = 0, Final residual = 0, No Iterations 0
diagonal:  Solving for T, Initial residual = 0, Final residual = 0, No Iterations 0
diagonal:  Solving for T, Initial residual = 0, Final residual = 0, No Iterations 0
 T goes from min(T) [0 0 0 0 0 0 0] -1.11571e+173 to max(T) [0 0 0 0 0 0 0] 1.08844e+173

ExecutionTime = 61.54 s  ClockTime = 980 s

Time = 2.475
Courant Number mean: 1.69511 max: 1.97956
diagonal:  Solving for T, Initial residual = 0, Final residual = 0, No Iterations 0
diagonal:  Solving for T, Initial residual = 0, Final residual = 0, No Iterations 0
diagonal:  Solving for T, Initial residual = 0, Final residual = 0, No Iterations 0
diagonal:  Solving for T, Initial residual = 0, Final residual = 0, No Iterations 0
 T goes from min(T) [0 0 0 0 0 0 0] -4.5206e+173 to max(T) [0 0 0 0 0 0 0] 4.55158e+173

ExecutionTime = 62.08 s  ClockTime = 987 s

Time = 2.5
Courant Number mean: 1.6862 max: 1.97703
diagonal:  Solving for T, Initial residual = 0, Final residual = 0, No Iterations 0
diagonal:  Solving for T, Initial residual = 0, Final residual = 0, No Iterations 0
diagonal:  Solving for T, Initial residual = 0, Final residual = 0, No Iterations 0
diagonal:  Solving for T, Initial residual = 0, Final residual = 0, No Iterations 0
 T goes from min(T) [0 0 0 0 0 0 0] -1.53149e+174 to max(T) [0 0 0 0 0 0 0] 1.55034e+174

ExecutionTime = 62.6 s  ClockTime = 993 s

Time = 2.525
Courant Number mean: 1.67728 max: 2.02583
diagonal:  Solving for T, Initial residual = 0, Final residual = 0, No Iterations 0
diagonal:  Solving for T, Initial residual = 0, Final residual = 0, No Iterations 0
diagonal:  Solving for T, Initial residual = 0, Final residual = 0, No Iterations 0
diagonal:  Solving for T, Initial residual = 0, Final residual = 0, No Iterations 0
 T goes from min(T) [0 0 0 0 0 0 0] -5.13346e+174 to max(T) [0 0 0 0 0 0 0] 5.14664e+174

ExecutionTime = 63.15 s  ClockTime = 1001 s

Time = 2.55
Courant Number mean: 1.66848 max: 2.07705
diagonal:  Solving for T, Initial residual = 0, Final residual = 0, No Iterations 0
diagonal:  Solving for T, Initial residual = 0, Final residual = 0, No Iterations 0
diagonal:  Solving for T, Initial residual = 0, Final residual = 0, No Iterations 0
diagonal:  Solving for T, Initial residual = 0, Final residual = 0, No Iterations 0
 T goes from min(T) [0 0 0 0 0 0 0] -1.47844e+175 to max(T) [0 0 0 0 0 0 0] 1.44724e+175

ExecutionTime = 63.68 s  ClockTime = 1008 s

Time = 2.575
Courant Number mean: 1.65988 max: 2.12982
diagonal:  Solving for T, Initial residual = 0, Final residual = 0, No Iterations 0
diagonal:  Solving for T, Initial residual = 0, Final residual = 0, No Iterations 0
diagonal:  Solving for T, Initial residual = 0, Final residual = 0, No Iterations 0
diagonal:  Solving for T, Initial residual = 0, Final residual = 0, No Iterations 0
 T goes from min(T) [0 0 0 0 0 0 0] -3.95924e+175 to max(T) [0 0 0 0 0 0 0] 3.96484e+175

ExecutionTime = 64.22 s  ClockTime = 1015 s

Time = 2.6
Courant Number mean: 1.65161 max: 2.18408
diagonal:  Solving for T, Initial residual = 0, Final residual = 0, No Iterations 0
diagonal:  Solving for T, Initial residual = 0, Final residual = 0, No Iterations 0
diagonal:  Solving for T, Initial residual = 0, Final residual = 0, No Iterations 0
diagonal:  Solving for T, Initial residual = 0, Final residual = 0, No Iterations 0
 T goes from min(T) [0 0 0 0 0 0 0] -9.54723e+175 to max(T) [0 0 0 0 0 0 0] 9.59464e+175

ExecutionTime = 64.79 s  ClockTime = 1022 s

Time = 2.625
Courant Number mean: 1.64376 max: 2.23926
diagonal:  Solving for T, Initial residual = 0, Final residual = 0, No Iterations 0
diagonal:  Solving for T, Initial residual = 0, Final residual = 0, No Iterations 0
diagonal:  Solving for T, Initial residual = 0, Final residual = 0, No Iterations 0
diagonal:  Solving for T, Initial residual = 0, Final residual = 0, No Iterations 0
 T goes from min(T) [0 0 0 0 0 0 0] -2.20888e+176 to max(T) [0 0 0 0 0 0 0] 2.17484e+176

ExecutionTime = 65.35 s  ClockTime = 1030 s

Time = 2.65
Courant Number mean: 1.63644 max: 2.29533
diagonal:  Solving for T, Initial residual = 0, Final residual = 0, No Iterations 0
diagonal:  Solving for T, Initial residual = 0, Final residual = 0, No Iterations 0
diagonal:  Solving for T, Initial residual = 0, Final residual = 0, No Iterations 0
diagonal:  Solving for T, Initial residual = 0, Final residual = 0, No Iterations 0
 T goes from min(T) [0 0 0 0 0 0 0] -4.87765e+176 to max(T) [0 0 0 0 0 0 0] 4.75827e+176

ExecutionTime = 65.89 s  ClockTime = 1037 s

Time = 2.675
Courant Number mean: 1.62974 max: 2.35159
diagonal:  Solving for T, Initial residual = 0, Final residual = 0, No Iterations 0
diagonal:  Solving for T, Initial residual = 0, Final residual = 0, No Iterations 0
diagonal:  Solving for T, Initial residual = 0, Final residual = 0, No Iterations 0
diagonal:  Solving for T, Initial residual = 0, Final residual = 0, No Iterations 0
 T goes from min(T) [0 0 0 0 0 0 0] -9.76328e+176 to max(T) [0 0 0 0 0 0 0] 1.01661e+177

ExecutionTime = 66.42 s  ClockTime = 1043 s

Time = 2.7
Courant Number mean: 1.62374 max: 2.40812
diagonal:  Solving for T, Initial residual = 0, Final residual = 0, No Iterations 0
diagonal:  Solving for T, Initial residual = 0, Final residual = 0, No Iterations 0
diagonal:  Solving for T, Initial residual = 0, Final residual = 0, No Iterations 0
diagonal:  Solving for T, Initial residual = 0, Final residual = 0, No Iterations 0
 T goes from min(T) [0 0 0 0 0 0 0] -1.86734e+177 to max(T) [0 0 0 0 0 0 0] 1.89083e+177

ExecutionTime = 66.96 s  ClockTime = 1050 s

Time = 2.725
Courant Number mean: 1.61855 max: 2.46419
diagonal:  Solving for T, Initial residual = 0, Final residual = 0, No Iterations 0
diagonal:  Solving for T, Initial residual = 0, Final residual = 0, No Iterations 0
diagonal:  Solving for T, Initial residual = 0, Final residual = 0, No Iterations 0
diagonal:  Solving for T, Initial residual = 0, Final residual = 0, No Iterations 0
 T goes from min(T) [0 0 0 0 0 0 0] -3.53603e+177 to max(T) [0 0 0 0 0 0 0] 3.6516e+177

ExecutionTime = 67.51 s  ClockTime = 1058 s

Time = 2.75
Courant Number mean: 1.61423 max: 2.51958
diagonal:  Solving for T, Initial residual = 0, Final residual = 0, No Iterations 0
diagonal:  Solving for T, Initial residual = 0, Final residual = 0, No Iterations 0
diagonal:  Solving for T, Initial residual = 0, Final residual = 0, No Iterations 0
diagonal:  Solving for T, Initial residual = 0, Final residual = 0, No Iterations 0
 T goes from min(T) [0 0 0 0 0 0 0] -6.35753e+177 to max(T) [0 0 0 0 0 0 0] 5.99636e+177

ExecutionTime = 68.1 s  ClockTime = 1065 s

Time = 2.775
Courant Number mean: 1.61087 max: 2.57411
diagonal:  Solving for T, Initial residual = 0, Final residual = 0, No Iterations 0
diagonal:  Solving for T, Initial residual = 0, Final residual = 0, No Iterations 0
diagonal:  Solving for T, Initial residual = 0, Final residual = 0, No Iterations 0
diagonal:  Solving for T, Initial residual = 0, Final residual = 0, No Iterations 0
 T goes from min(T) [0 0 0 0 0 0 0] -3.46041e+178 to max(T) [0 0 0 0 0 0 0] 3.358e+178

ExecutionTime = 68.64 s  ClockTime = 1072 s

Time = 2.8
Courant Number mean: 1.60852 max: 2.62707
diagonal:  Solving for T, Initial residual = 0, Final residual = 0, No Iterations 0
diagonal:  Solving for T, Initial residual = 0, Final residual = 0, No Iterations 0
diagonal:  Solving for T, Initial residual = 0, Final residual = 0, No Iterations 0
diagonal:  Solving for T, Initial residual = 0, Final residual = 0, No Iterations 0
 T goes from min(T) [0 0 0 0 0 0 0] -3.0641e+179 to max(T) [0 0 0 0 0 0 0] 3.08175e+179

ExecutionTime = 69.21 s  ClockTime = 1080 s

Time = 2.825
Courant Number mean: 1.60726 max: 2.67984
diagonal:  Solving for T, Initial residual = 0, Final residual = 0, No Iterations 0
diagonal:  Solving for T, Initial residual = 0, Final residual = 0, No Iterations 0
diagonal:  Solving for T, Initial residual = 0, Final residual = 0, No Iterations 0
diagonal:  Solving for T, Initial residual = 0, Final residual = 0, No Iterations 0
 T goes from min(T) [0 0 0 0 0 0 0] -3.33135e+180 to max(T) [0 0 0 0 0 0 0] 3.38073e+180

ExecutionTime = 69.93 s  ClockTime = 1089 s

Time = 2.85
Courant Number mean: 1.60713 max: 2.7323
diagonal:  Solving for T, Initial residual = 0, Final residual = 0, No Iterations 0
diagonal:  Solving for T, Initial residual = 0, Final residual = 0, No Iterations 0
diagonal:  Solving for T, Initial residual = 0, Final residual = 0, No Iterations 0
diagonal:  Solving for T, Initial residual = 0, Final residual = 0, No Iterations 0
 T goes from min(T) [0 0 0 0 0 0 0] -4.40482e+181 to max(T) [0 0 0 0 0 0 0] 4.63089e+181

ExecutionTime = 70.52 s  ClockTime = 1097 s

Time = 2.875
Courant Number mean: 1.60817 max: 2.78436
diagonal:  Solving for T, Initial residual = 0, Final residual = 0, No Iterations 0
diagonal:  Solving for T, Initial residual = 0, Final residual = 0, No Iterations 0
diagonal:  Solving for T, Initial residual = 0, Final residual = 0, No Iterations 0
diagonal:  Solving for T, Initial residual = 0, Final residual = 0, No Iterations 0
 T goes from min(T) [0 0 0 0 0 0 0] -7.59224e+182 to max(T) [0 0 0 0 0 0 0] 7.46318e+182

ExecutionTime = 71.1 s  ClockTime = 1105 s

Time = 2.9
Courant Number mean: 1.61042 max: 2.83591
diagonal:  Solving for T, Initial residual = 0, Final residual = 0, No Iterations 0
diagonal:  Solving for T, Initial residual = 0, Final residual = 0, No Iterations 0
diagonal:  Solving for T, Initial residual = 0, Final residual = 0, No Iterations 0
diagonal:  Solving for T, Initial residual = 0, Final residual = 0, No Iterations 0
 T goes from min(T) [0 0 0 0 0 0 0] -1.58341e+184 to max(T) [0 0 0 0 0 0 0] 1.48847e+184

ExecutionTime = 71.71 s  ClockTime = 1112 s

Time = 2.925
Courant Number mean: 1.61391 max: 2.88683
diagonal:  Solving for T, Initial residual = 0, Final residual = 0, No Iterations 0
diagonal:  Solving for T, Initial residual = 0, Final residual = 0, No Iterations 0
diagonal:  Solving for T, Initial residual = 0, Final residual = 0, No Iterations 0
diagonal:  Solving for T, Initial residual = 0, Final residual = 0, No Iterations 0
 T goes from min(T) [0 0 0 0 0 0 0] -3.38278e+185 to max(T) [0 0 0 0 0 0 0] 3.44742e+185

ExecutionTime = 72.3 s  ClockTime = 1120 s

Time = 2.95
Courant Number mean: 1.61865 max: 2.93704
diagonal:  Solving for T, Initial residual = 0, Final residual = 0, No Iterations 0
diagonal:  Solving for T, Initial residual = 0, Final residual = 0, No Iterations 0
diagonal:  Solving for T, Initial residual = 0, Final residual = 0, No Iterations 0
diagonal:  Solving for T, Initial residual = 0, Final residual = 0, No Iterations 0
 T goes from min(T) [0 0 0 0 0 0 0] -8.96537e+186 to max(T) [0 0 0 0 0 0 0] 9.04604e+186

ExecutionTime = 72.86 s  ClockTime = 1127 s

Time = 2.975
Courant Number mean: 1.62464 max: 2.9867
diagonal:  Solving for T, Initial residual = 0, Final residual = 0, No Iterations 0
diagonal:  Solving for T, Initial residual = 0, Final residual = 0, No Iterations 0
diagonal:  Solving for T, Initial residual = 0, Final residual = 0, No Iterations 0
diagonal:  Solving for T, Initial residual = 0, Final residual = 0, No Iterations 0
 T goes from min(T) [0 0 0 0 0 0 0] -2.47716e+188 to max(T) [0 0 0 0 0 0 0] 2.48918e+188

ExecutionTime = 73.42 s  ClockTime = 1135 s

Time = 3
Courant Number mean: 1.63202 max: 3.03577
diagonal:  Solving for T, Initial residual = 0, Final residual = 0, No Iterations 0
diagonal:  Solving for T, Initial residual = 0, Final residual = 0, No Iterations 0
diagonal:  Solving for T, Initial residual = 0, Final residual = 0, No Iterations 0
diagonal:  Solving for T, Initial residual = 0, Final residual = 0, No Iterations 0
 T goes from min(T) [0 0 0 0 0 0 0] -7.43091e+189 to max(T) [0 0 0 0 0 0 0] 7.83159e+189

ExecutionTime = 73.98 s  ClockTime = 1142 s

Time = 3.025
Courant Number mean: 1.64082 max: 3.08391
diagonal:  Solving for T, Initial residual = 0, Final residual = 0, No Iterations 0
diagonal:  Solving for T, Initial residual = 0, Final residual = 0, No Iterations 0
diagonal:  Solving for T, Initial residual = 0, Final residual = 0, No Iterations 0
diagonal:  Solving for T, Initial residual = 0, Final residual = 0, No Iterations 0
 T goes from min(T) [0 0 0 0 0 0 0] -2.55005e+191 to max(T) [0 0 0 0 0 0 0] 2.51095e+191

ExecutionTime = 74.54 s  ClockTime = 1149 s

Time = 3.05
Courant Number mean: 1.65097 max: 3.13102
diagonal:  Solving for T, Initial residual = 0, Final residual = 0, No Iterations 0
diagonal:  Solving for T, Initial residual = 0, Final residual = 0, No Iterations 0
diagonal:  Solving for T, Initial residual = 0, Final residual = 0, No Iterations 0
diagonal:  Solving for T, Initial residual = 0, Final residual = 0, No Iterations 0
 T goes from min(T) [0 0 0 0 0 0 0] -8.54263e+192 to max(T) [0 0 0 0 0 0 0] 9.11729e+192

ExecutionTime = 75.1 s  ClockTime = 1157 s

Time = 3.075
Courant Number mean: 1.66281 max: 3.17727
diagonal:  Solving for T, Initial residual = 0, Final residual = 0, No Iterations 0
diagonal:  Solving for T, Initial residual = 0, Final residual = 0, No Iterations 0
diagonal:  Solving for T, Initial residual = 0, Final residual = 0, No Iterations 0
diagonal:  Solving for T, Initial residual = 0, Final residual = 0, No Iterations 0
 T goes from min(T) [0 0 0 0 0 0 0] -3.34697e+194 to max(T) [0 0 0 0 0 0 0] 3.40046e+194

ExecutionTime = 75.64 s  ClockTime = 1163 s

Time = 3.1
Courant Number mean: 1.6763 max: 3.22272
diagonal:  Solving for T, Initial residual = 0, Final residual = 0, No Iterations 0
diagonal:  Solving for T, Initial residual = 0, Final residual = 0, No Iterations 0
diagonal:  Solving for T, Initial residual = 0, Final residual = 0, No Iterations 0
diagonal:  Solving for T, Initial residual = 0, Final residual = 0, No Iterations 0
 T goes from min(T) [0 0 0 0 0 0 0] -1.26392e+196 to max(T) [0 0 0 0 0 0 0] 1.33009e+196

ExecutionTime = 76.18 s  ClockTime = 1170 s

Time = 3.125
Courant Number mean: 1.69102 max: 3.26709
diagonal:  Solving for T, Initial residual = 0, Final residual = 0, No Iterations 0
diagonal:  Solving for T, Initial residual = 0, Final residual = 0, No Iterations 0
diagonal:  Solving for T, Initial residual = 0, Final residual = 0, No Iterations 0
diagonal:  Solving for T, Initial residual = 0, Final residual = 0, No Iterations 0
 T goes from min(T) [0 0 0 0 0 0 0] -5.62299e+197 to max(T) [0 0 0 0 0 0 0] 5.73689e+197

ExecutionTime = 76.73 s  ClockTime = 1176 s

Time = 3.15
Courant Number mean: 1.70672 max: 3.31072
diagonal:  Solving for T, Initial residual = 0, Final residual = 0, No Iterations 0
diagonal:  Solving for T, Initial residual = 0, Final residual = 0, No Iterations 0
diagonal:  Solving for T, Initial residual = 0, Final residual = 0, No Iterations 0
diagonal:  Solving for T, Initial residual = 0, Final residual = 0, No Iterations 0
 T goes from min(T) [0 0 0 0 0 0 0] -2.43731e+199 to max(T) [0 0 0 0 0 0 0] 2.4404e+199

ExecutionTime = 77.28 s  ClockTime = 1183 s

Time = 3.175
Courant Number mean: 1.72323 max: 3.35318
diagonal:  Solving for T, Initial residual = 0, Final residual = 0, No Iterations 0
diagonal:  Solving for T, Initial residual = 0, Final residual = 0, No Iterations 0
diagonal:  Solving for T, Initial residual = 0, Final residual = 0, No Iterations 0
diagonal:  Solving for T, Initial residual = 0, Final residual = 0, No Iterations 0
 T goes from min(T) [0 0 0 0 0 0 0] -1.05258e+201 to max(T) [0 0 0 0 0 0 0] 1.10306e+201

ExecutionTime = 77.86 s  ClockTime = 1190 s

Time = 3.2
Courant Number mean: 1.74039 max: 3.39425
diagonal:  Solving for T, Initial residual = 0, Final residual = 0, No Iterations 0
diagonal:  Solving for T, Initial residual = 0, Final residual = 0, No Iterations 0
diagonal:  Solving for T, Initial residual = 0, Final residual = 0, No Iterations 0
diagonal:  Solving for T, Initial residual = 0, Final residual = 0, No Iterations 0
 T goes from min(T) [0 0 0 0 0 0 0] -5.16769e+202 to max(T) [0 0 0 0 0 0 0] 5.37919e+202

ExecutionTime = 78.52 s  ClockTime = 1198 s

Time = 3.225
Courant Number mean: 1.75809 max: 3.43401
diagonal:  Solving for T, Initial residual = 0, Final residual = 0, No Iterations 0
diagonal:  Solving for T, Initial residual = 0, Final residual = 0, No Iterations 0
diagonal:  Solving for T, Initial residual = 0, Final residual = 0, No Iterations 0
diagonal:  Solving for T, Initial residual = 0, Final residual = 0, No Iterations 0
 T goes from min(T) [0 0 0 0 0 0 0] -2.53693e+204 to max(T) [0 0 0 0 0 0 0] 2.63819e+204

ExecutionTime = 79.08 s  ClockTime = 1205 s

Time = 3.25
Courant Number mean: 1.77621 max: 3.4731
diagonal:  Solving for T, Initial residual = 0, Final residual = 0, No Iterations 0
diagonal:  Solving for T, Initial residual = 0, Final residual = 0, No Iterations 0
diagonal:  Solving for T, Initial residual = 0, Final residual = 0, No Iterations 0
diagonal:  Solving for T, Initial residual = 0, Final residual = 0, No Iterations 0
 T goes from min(T) [0 0 0 0 0 0 0] -1.28904e+206 to max(T) [0 0 0 0 0 0 0] 1.38817e+206

ExecutionTime = 79.63 s  ClockTime = 1211 s

Time = 3.275
Courant Number mean: 1.79467 max: 3.51065
diagonal:  Solving for T, Initial residual = 0, Final residual = 0, No Iterations 0
diagonal:  Solving for T, Initial residual = 0, Final residual = 0, No Iterations 0
diagonal:  Solving for T, Initial residual = 0, Final residual = 0, No Iterations 0
diagonal:  Solving for T, Initial residual = 0, Final residual = 0, No Iterations 0
 T goes from min(T) [0 0 0 0 0 0 0] -7.06023e+207 to max(T) [0 0 0 0 0 0 0] 7.5156e+207

ExecutionTime = 80.17 s  ClockTime = 1218 s

Time = 3.3
Courant Number mean: 1.81336 max: 3.54658
diagonal:  Solving for T, Initial residual = 0, Final residual = 0, No Iterations 0
diagonal:  Solving for T, Initial residual = 0, Final residual = 0, No Iterations 0
diagonal:  Solving for T, Initial residual = 0, Final residual = 0, No Iterations 0
diagonal:  Solving for T, Initial residual = 0, Final residual = 0, No Iterations 0
 T goes from min(T) [0 0 0 0 0 0 0] -3.90556e+209 to max(T) [0 0 0 0 0 0 0] 4.10565e+209

ExecutionTime = 80.74 s  ClockTime = 1224 s

Time = 3.325
Courant Number mean: 1.8322 max: 3.58142
diagonal:  Solving for T, Initial residual = 0, Final residual = 0, No Iterations 0
diagonal:  Solving for T, Initial residual = 0, Final residual = 0, No Iterations 0
diagonal:  Solving for T, Initial residual = 0, Final residual = 0, No Iterations 0
diagonal:  Solving for T, Initial residual = 0, Final residual = 0, No Iterations 0
 T goes from min(T) [0 0 0 0 0 0 0] -2.19615e+211 to max(T) [0 0 0 0 0 0 0] 2.26592e+211

ExecutionTime = 81.28 s  ClockTime = 1231 s

Time = 3.35
Courant Number mean: 1.85113 max: 3.61512
diagonal:  Solving for T, Initial residual = 0, Final residual = 0, No Iterations 0
diagonal:  Solving for T, Initial residual = 0, Final residual = 0, No Iterations 0
diagonal:  Solving for T, Initial residual = 0, Final residual = 0, No Iterations 0
diagonal:  Solving for T, Initial residual = 0, Final residual = 0, No Iterations 0
 T goes from min(T) [0 0 0 0 0 0 0] -1.25815e+213 to max(T) [0 0 0 0 0 0 0] 1.26975e+213

ExecutionTime = 81.85 s  ClockTime = 1238 s

Time = 3.375
Courant Number mean: 1.87006 max: 3.64709
diagonal:  Solving for T, Initial residual = 0, Final residual = 0, No Iterations 0
diagonal:  Solving for T, Initial residual = 0, Final residual = 0, No Iterations 0
diagonal:  Solving for T, Initial residual = 0, Final residual = 0, No Iterations 0
diagonal:  Solving for T, Initial residual = 0, Final residual = 0, No Iterations 0
 T goes from min(T) [0 0 0 0 0 0 0] -7.38181e+214 to max(T) [0 0 0 0 0 0 0] 7.27318e+214

ExecutionTime = 82.42 s  ClockTime = 1245 s

Time = 3.4
Courant Number mean: 1.8889 max: 3.67726
diagonal:  Solving for T, Initial residual = 0, Final residual = 0, No Iterations 0
diagonal:  Solving for T, Initial residual = 0, Final residual = 0, No Iterations 0
diagonal:  Solving for T, Initial residual = 0, Final residual = 0, No Iterations 0
diagonal:  Solving for T, Initial residual = 0, Final residual = 0, No Iterations 0
 T goes from min(T) [0 0 0 0 0 0 0] -4.60271e+216 to max(T) [0 0 0 0 0 0 0] 4.55408e+216

ExecutionTime = 82.98 s  ClockTime = 1251 s

Time = 3.425
Courant Number mean: 1.9076 max: 3.70686
diagonal:  Solving for T, Initial residual = 0, Final residual = 0, No Iterations 0
diagonal:  Solving for T, Initial residual = 0, Final residual = 0, No Iterations 0
diagonal:  Solving for T, Initial residual = 0, Final residual = 0, No Iterations 0
diagonal:  Solving for T, Initial residual = 0, Final residual = 0, No Iterations 0
 T goes from min(T) [0 0 0 0 0 0 0] -2.97112e+218 to max(T) [0 0 0 0 0 0 0] 2.93246e+218

ExecutionTime = 83.55 s  ClockTime = 1258 s

Time = 3.45
Courant Number mean: 1.92608 max: 3.73462
diagonal:  Solving for T, Initial residual = 0, Final residual = 0, No Iterations 0
diagonal:  Solving for T, Initial residual = 0, Final residual = 0, No Iterations 0
diagonal:  Solving for T, Initial residual = 0, Final residual = 0, No Iterations 0
diagonal:  Solving for T, Initial residual = 0, Final residual = 0, No Iterations 0
 T goes from min(T) [0 0 0 0 0 0 0] -1.94719e+220 to max(T) [0 0 0 0 0 0 0] 1.93211e+220

ExecutionTime = 84.09 s  ClockTime = 1265 s

Time = 3.475
Courant Number mean: 1.94422 max: 3.76055
diagonal:  Solving for T, Initial residual = 0, Final residual = 0, No Iterations 0
diagonal:  Solving for T, Initial residual = 0, Final residual = 0, No Iterations 0
diagonal:  Solving for T, Initial residual = 0, Final residual = 0, No Iterations 0
diagonal:  Solving for T, Initial residual = 0, Final residual = 0, No Iterations 0
 T goes from min(T) [0 0 0 0 0 0 0] -1.27964e+222 to max(T) [0 0 0 0 0 0 0] 1.29103e+222

ExecutionTime = 84.64 s  ClockTime = 1271 s

Time = 3.5
Courant Number mean: 1.96194 max: 3.78557
diagonal:  Solving for T, Initial residual = 0, Final residual = 0, No Iterations 0
diagonal:  Solving for T, Initial residual = 0, Final residual = 0, No Iterations 0
diagonal:  Solving for T, Initial residual = 0, Final residual = 0, No Iterations 0
diagonal:  Solving for T, Initial residual = 0, Final residual = 0, No Iterations 0
 T goes from min(T) [0 0 0 0 0 0 0] -8.35052e+223 to max(T) [0 0 0 0 0 0 0] 8.65094e+223

ExecutionTime = 85.19 s  ClockTime = 1278 s

Time = 3.525
Courant Number mean: 1.97908 max: 3.80867
diagonal:  Solving for T, Initial residual = 0, Final residual = 0, No Iterations 0
diagonal:  Solving for T, Initial residual = 0, Final residual = 0, No Iterations 0
diagonal:  Solving for T, Initial residual = 0, Final residual = 0, No Iterations 0
diagonal:  Solving for T, Initial residual = 0, Final residual = 0, No Iterations 0
 T goes from min(T) [0 0 0 0 0 0 0] -5.38535e+225 to max(T) [0 0 0 0 0 0 0] 5.79776e+225

ExecutionTime = 85.74 s  ClockTime = 1285 s

Time = 3.55
Courant Number mean: 1.9955 max: 3.83028
diagonal:  Solving for T, Initial residual = 0, Final residual = 0, No Iterations 0
diagonal:  Solving for T, Initial residual = 0, Final residual = 0, No Iterations 0
diagonal:  Solving for T, Initial residual = 0, Final residual = 0, No Iterations 0
diagonal:  Solving for T, Initial residual = 0, Final residual = 0, No Iterations 0
 T goes from min(T) [0 0 0 0 0 0 0] -3.99112e+227 to max(T) [0 0 0 0 0 0 0] 3.90269e+227

ExecutionTime = 86.29 s  ClockTime = 1291 s

Time = 3.575
Courant Number mean: 2.01109 max: 3.85086
diagonal:  Solving for T, Initial residual = 0, Final residual = 0, No Iterations 0
diagonal:  Solving for T, Initial residual = 0, Final residual = 0, No Iterations 0
diagonal:  Solving for T, Initial residual = 0, Final residual = 0, No Iterations 0
diagonal:  Solving for T, Initial residual = 0, Final residual = 0, No Iterations 0
 T goes from min(T) [0 0 0 0 0 0 0] -3.05463e+229 to max(T) [0 0 0 0 0 0 0] 2.87597e+229

ExecutionTime = 86.86 s  ClockTime = 1298 s

Time = 3.6
Courant Number mean: 2.02579 max: 3.86946
diagonal:  Solving for T, Initial residual = 0, Final residual = 0, No Iterations 0
diagonal:  Solving for T, Initial residual = 0, Final residual = 0, No Iterations 0
diagonal:  Solving for T, Initial residual = 0, Final residual = 0, No Iterations 0
diagonal:  Solving for T, Initial residual = 0, Final residual = 0, No Iterations 0
 T goes from min(T) [0 0 0 0 0 0 0] -2.2984e+231 to max(T) [0 0 0 0 0 0 0] 2.13524e+231

ExecutionTime = 87.42 s  ClockTime = 1304 s

Time = 3.625
Courant Number mean: 2.03965 max: 3.88605
diagonal:  Solving for T, Initial residual = 0, Final residual = 0, No Iterations 0
diagonal:  Solving for T, Initial residual = 0, Final residual = 0, No Iterations 0
diagonal:  Solving for T, Initial residual = 0, Final residual = 0, No Iterations 0
diagonal:  Solving for T, Initial residual = 0, Final residual = 0, No Iterations 0
 T goes from min(T) [0 0 0 0 0 0 0] -1.67651e+233 to max(T) [0 0 0 0 0 0 0] 1.64483e+233

ExecutionTime = 87.99 s  ClockTime = 1310 s

Time = 3.65
Courant Number mean: 2.05255 max: 3.90203
diagonal:  Solving for T, Initial residual = 0, Final residual = 0, No Iterations 0
diagonal:  Solving for T, Initial residual = 0, Final residual = 0, No Iterations 0
diagonal:  Solving for T, Initial residual = 0, Final residual = 0, No Iterations 0
diagonal:  Solving for T, Initial residual = 0, Final residual = 0, No Iterations 0
 T goes from min(T) [0 0 0 0 0 0 0] -1.21125e+235 to max(T) [0 0 0 0 0 0 0] 1.25334e+235

ExecutionTime = 88.55 s  ClockTime = 1316 s

Time = 3.675
Courant Number mean: 2.06437 max: 3.91609
diagonal:  Solving for T, Initial residual = 0, Final residual = 0, No Iterations 0
diagonal:  Solving for T, Initial residual = 0, Final residual = 0, No Iterations 0
diagonal:  Solving for T, Initial residual = 0, Final residual = 0, No Iterations 0
diagonal:  Solving for T, Initial residual = 0, Final residual = 0, No Iterations 0
 T goes from min(T) [0 0 0 0 0 0 0] -8.79124e+236 to max(T) [0 0 0 0 0 0 0] 9.27656e+236

ExecutionTime = 89.11 s  ClockTime = 1321 s

Time = 3.7
Courant Number mean: 2.07501 max: 3.92811
diagonal:  Solving for T, Initial residual = 0, Final residual = 0, No Iterations 0
diagonal:  Solving for T, Initial residual = 0, Final residual = 0, No Iterations 0
diagonal:  Solving for T, Initial residual = 0, Final residual = 0, No Iterations 0
diagonal:  Solving for T, Initial residual = 0, Final residual = 0, No Iterations 0
 T goes from min(T) [0 0 0 0 0 0 0] -7.50297e+238 to max(T) [0 0 0 0 0 0 0] 7.22707e+238

ExecutionTime = 89.67 s  ClockTime = 1327 s

Time = 3.725
Courant Number mean: 2.08435 max: 3.93909
diagonal:  Solving for T, Initial residual = 0, Final residual = 0, No Iterations 0
diagonal:  Solving for T, Initial residual = 0, Final residual = 0, No Iterations 0
diagonal:  Solving for T, Initial residual = 0, Final residual = 0, No Iterations 0
diagonal:  Solving for T, Initial residual = 0, Final residual = 0, No Iterations 0
 T goes from min(T) [0 0 0 0 0 0 0] -6.20037e+240 to max(T) [0 0 0 0 0 0 0] 5.88133e+240

ExecutionTime = 90.23 s  ClockTime = 1332 s

Time = 3.75
Courant Number mean: 2.09243 max: 3.94862
diagonal:  Solving for T, Initial residual = 0, Final residual = 0, No Iterations 0
diagonal:  Solving for T, Initial residual = 0, Final residual = 0, No Iterations 0
diagonal:  Solving for T, Initial residual = 0, Final residual = 0, No Iterations 0
diagonal:  Solving for T, Initial residual = 0, Final residual = 0, No Iterations 0
 T goes from min(T) [0 0 0 0 0 0 0] -4.79351e+242 to max(T) [0 0 0 0 0 0 0] 4.83498e+242

ExecutionTime = 90.81 s  ClockTime = 1338 s

Time = 3.775
Courant Number mean: 2.09925 max: 4.00602
diagonal:  Solving for T, Initial residual = 0, Final residual = 0, No Iterations 0
diagonal:  Solving for T, Initial residual = 0, Final residual = 0, No Iterations 0
diagonal:  Solving for T, Initial residual = 0, Final residual = 0, No Iterations 0
diagonal:  Solving for T, Initial residual = 0, Final residual = 0, No Iterations 0
 T goes from min(T) [0 0 0 0 0 0 0] -3.63772e+244 to max(T) [0 0 0 0 0 0 0] 3.80385e+244

ExecutionTime = 91.38 s  ClockTime = 1344 s

Time = 3.8
Courant Number mean: 2.10479 max: 4.06269
diagonal:  Solving for T, Initial residual = 0, Final residual = 0, No Iterations 0
diagonal:  Solving for T, Initial residual = 0, Final residual = 0, No Iterations 0
diagonal:  Solving for T, Initial residual = 0, Final residual = 0, No Iterations 0
diagonal:  Solving for T, Initial residual = 0, Final residual = 0, No Iterations 0
 T goes from min(T) [0 0 0 0 0 0 0] -3.10261e+246 to max(T) [0 0 0 0 0 0 0] 2.95353e+246

ExecutionTime = 91.96 s  ClockTime = 1350 s

Time = 3.825
Courant Number mean: 2.10899 max: 4.11994
diagonal:  Solving for T, Initial residual = 0, Final residual = 0, No Iterations 0
diagonal:  Solving for T, Initial residual = 0, Final residual = 0, No Iterations 0
diagonal:  Solving for T, Initial residual = 0, Final residual = 0, No Iterations 0
diagonal:  Solving for T, Initial residual = 0, Final residual = 0, No Iterations 0
 T goes from min(T) [0 0 0 0 0 0 0] -2.62674e+248 to max(T) [0 0 0 0 0 0 0] 2.5138e+248

ExecutionTime = 92.52 s  ClockTime = 1355 s

Time = 3.85
Courant Number mean: 2.11182 max: 4.17632
diagonal:  Solving for T, Initial residual = 0, Final residual = 0, No Iterations 0
diagonal:  Solving for T, Initial residual = 0, Final residual = 0, No Iterations 0
diagonal:  Solving for T, Initial residual = 0, Final residual = 0, No Iterations 0
diagonal:  Solving for T, Initial residual = 0, Final residual = 0, No Iterations 0
 T goes from min(T) [0 0 0 0 0 0 0] -2.21985e+250 to max(T) [0 0 0 0 0 0 0] 2.22517e+250

ExecutionTime = 93.07 s  ClockTime = 1361 s

Time = 3.875
Courant Number mean: 2.11325 max: 4.2319
diagonal:  Solving for T, Initial residual = 0, Final residual = 0, No Iterations 0
diagonal:  Solving for T, Initial residual = 0, Final residual = 0, No Iterations 0
diagonal:  Solving for T, Initial residual = 0, Final residual = 0, No Iterations 0
diagonal:  Solving for T, Initial residual = 0, Final residual = 0, No Iterations 0
 T goes from min(T) [0 0 0 0 0 0 0] -1.70193e+252 to max(T) [0 0 0 0 0 0 0] 1.8022e+252

ExecutionTime = 93.6 s  ClockTime = 1366 s

Time = 3.9
Courant Number mean: 2.1133 max: 4.28778
diagonal:  Solving for T, Initial residual = 0, Final residual = 0, No Iterations 0
diagonal:  Solving for T, Initial residual = 0, Final residual = 0, No Iterations 0
diagonal:  Solving for T, Initial residual = 0, Final residual = 0, No Iterations 0
diagonal:  Solving for T, Initial residual = 0, Final residual = 0, No Iterations 0
 T goes from min(T) [0 0 0 0 0 0 0] -1.50437e+254 to max(T) [0 0 0 0 0 0 0] 1.43234e+254

ExecutionTime = 94.13 s  ClockTime = 1371 s

Time = 3.925
Courant Number mean: 2.11195 max: 4.34257
diagonal:  Solving for T, Initial residual = 0, Final residual = 0, No Iterations 0
diagonal:  Solving for T, Initial residual = 0, Final residual = 0, No Iterations 0
diagonal:  Solving for T, Initial residual = 0, Final residual = 0, No Iterations 0
diagonal:  Solving for T, Initial residual = 0, Final residual = 0, No Iterations 0
 T goes from min(T) [0 0 0 0 0 0 0] -1.33089e+256 to max(T) [0 0 0 0 0 0 0] 1.31522e+256

ExecutionTime = 94.67 s  ClockTime = 1377 s

Time = 3.95
Courant Number mean: 2.10927 max: 4.39619
diagonal:  Solving for T, Initial residual = 0, Final residual = 0, No Iterations 0
diagonal:  Solving for T, Initial residual = 0, Final residual = 0, No Iterations 0
diagonal:  Solving for T, Initial residual = 0, Final residual = 0, No Iterations 0
diagonal:  Solving for T, Initial residual = 0, Final residual = 0, No Iterations 0
 T goes from min(T) [0 0 0 0 0 0 0] -1.08108e+258 to max(T) [0 0 0 0 0 0 0] 1.08994e+258

ExecutionTime = 95.23 s  ClockTime = 1382 s

Time = 3.975
Courant Number mean: 2.10559 max: 4.44946
diagonal:  Solving for T, Initial residual = 0, Final residual = 0, No Iterations 0
diagonal:  Solving for T, Initial residual = 0, Final residual = 0, No Iterations 0
diagonal:  Solving for T, Initial residual = 0, Final residual = 0, No Iterations 0
diagonal:  Solving for T, Initial residual = 0, Final residual = 0, No Iterations 0
 T goes from min(T) [0 0 0 0 0 0 0] -8.86083e+259 to max(T) [0 0 0 0 0 0 0] 9.3391e+259

ExecutionTime = 95.85 s  ClockTime = 1389 s

Time = 4
Courant Number mean: 2.10109 max: 4.50219
diagonal:  Solving for T, Initial residual = 0, Final residual = 0, No Iterations 0
diagonal:  Solving for T, Initial residual = 0, Final residual = 0, No Iterations 0
diagonal:  Solving for T, Initial residual = 0, Final residual = 0, No Iterations 0
diagonal:  Solving for T, Initial residual = 0, Final residual = 0, No Iterations 0
 T goes from min(T) [0 0 0 0 0 0 0] -7.02489e+261 to max(T) [0 0 0 0 0 0 0] 7.03873e+261

ExecutionTime = 96.42 s  ClockTime = 1394 s

Time = 4.025
Courant Number mean: 2.09589 max: 4.55354
diagonal:  Solving for T, Initial residual = 0, Final residual = 0, No Iterations 0
diagonal:  Solving for T, Initial residual = 0, Final residual = 0, No Iterations 0
diagonal:  Solving for T, Initial residual = 0, Final residual = 0, No Iterations 0
diagonal:  Solving for T, Initial residual = 0, Final residual = 0, No Iterations 0
 T goes from min(T) [0 0 0 0 0 0 0] -5.32744e+263 to max(T) [0 0 0 0 0 0 0] 5.17976e+263

ExecutionTime = 96.97 s  ClockTime = 1400 s

Time = 4.05
Courant Number mean: 2.09009 max: 4.60342
diagonal:  Solving for T, Initial residual = 0, Final residual = 0, No Iterations 0
diagonal:  Solving for T, Initial residual = 0, Final residual = 0, No Iterations 0
diagonal:  Solving for T, Initial residual = 0, Final residual = 0, No Iterations 0
diagonal:  Solving for T, Initial residual = 0, Final residual = 0, No Iterations 0
 T goes from min(T) [0 0 0 0 0 0 0] -3.74569e+265 to max(T) [0 0 0 0 0 0 0] 3.6314e+265

ExecutionTime = 97.51 s  ClockTime = 1405 s

Time = 4.075
Courant Number mean: 2.08372 max: 4.6534
diagonal:  Solving for T, Initial residual = 0, Final residual = 0, No Iterations 0
diagonal:  Solving for T, Initial residual = 0, Final residual = 0, No Iterations 0
diagonal:  Solving for T, Initial residual = 0, Final residual = 0, No Iterations 0
diagonal:  Solving for T, Initial residual = 0, Final residual = 0, No Iterations 0
 T goes from min(T) [0 0 0 0 0 0 0] -2.5757e+267 to max(T) [0 0 0 0 0 0 0] 2.37749e+267

ExecutionTime = 98.07 s  ClockTime = 1411 s

Time = 4.1
Courant Number mean: 2.07682 max: 4.70195
diagonal:  Solving for T, Initial residual = 0, Final residual = 0, No Iterations 0
diagonal:  Solving for T, Initial residual = 0, Final residual = 0, No Iterations 0
diagonal:  Solving for T, Initial residual = 0, Final residual = 0, No Iterations 0
diagonal:  Solving for T, Initial residual = 0, Final residual = 0, No Iterations 0
 T goes from min(T) [0 0 0 0 0 0 0] -1.75805e+269 to max(T) [0 0 0 0 0 0 0] 1.76129e+269

ExecutionTime = 98.6 s  ClockTime = 1416 s

Time = 4.125
Courant Number mean: 2.06946 max: 4.74884
diagonal:  Solving for T, Initial residual = 0, Final residual = 0, No Iterations 0
diagonal:  Solving for T, Initial residual = 0, Final residual = 0, No Iterations 0
diagonal:  Solving for T, Initial residual = 0, Final residual = 0, No Iterations 0
diagonal:  Solving for T, Initial residual = 0, Final residual = 0, No Iterations 0
 T goes from min(T) [0 0 0 0 0 0 0] -1.0587e+271 to max(T) [0 0 0 0 0 0 0] 1.24129e+271

ExecutionTime = 99.15 s  ClockTime = 1422 s

Time = 4.15
Courant Number mean: 2.06166 max: 4.7949
diagonal:  Solving for T, Initial residual = 0, Final residual = 0, No Iterations 0
diagonal:  Solving for T, Initial residual = 0, Final residual = 0, No Iterations 0
diagonal:  Solving for T, Initial residual = 0, Final residual = 0, No Iterations 0
diagonal:  Solving for T, Initial residual = 0, Final residual = 0, No Iterations 0
 T goes from min(T) [0 0 0 0 0 0 0] -7.48382e+272 to max(T) [0 0 0 0 0 0 0] 7.61197e+272

ExecutionTime = 99.68 s  ClockTime = 1427 s

Time = 4.175
Courant Number mean: 2.05346 max: 4.83995
diagonal:  Solving for T, Initial residual = 0, Final residual = 0, No Iterations 0
diagonal:  Solving for T, Initial residual = 0, Final residual = 0, No Iterations 0
diagonal:  Solving for T, Initial residual = 0, Final residual = 0, No Iterations 0
diagonal:  Solving for T, Initial residual = 0, Final residual = 0, No Iterations 0
 T goes from min(T) [0 0 0 0 0 0 0] -4.66848e+274 to max(T) [0 0 0 0 0 0 0] 4.11832e+274

ExecutionTime = 100.23 s  ClockTime = 1432 s

Time = 4.2
Courant Number mean: 2.04485 max: 4.88332
diagonal:  Solving for T, Initial residual = 0, Final residual = 0, No Iterations 0
diagonal:  Solving for T, Initial residual = 0, Final residual = 0, No Iterations 0
diagonal:  Solving for T, Initial residual = 0, Final residual = 0, No Iterations 0
diagonal:  Solving for T, Initial residual = 0, Final residual = 0, No Iterations 0
 T goes from min(T) [0 0 0 0 0 0 0] -9.37527e+276 to max(T) [0 0 0 0 0 0 0] 9.22836e+276

ExecutionTime = 100.87 s  ClockTime = 1439 s

Time = 4.225
Courant Number mean: 2.03591 max: 4.92655
diagonal:  Solving for T, Initial residual = 0, Final residual = 0, No Iterations 0
diagonal:  Solving for T, Initial residual = 0, Final residual = 0, No Iterations 0
diagonal:  Solving for T, Initial residual = 0, Final residual = 0, No Iterations 0
diagonal:  Solving for T, Initial residual = 0, Final residual = 0, No Iterations 0
 T goes from min(T) [0 0 0 0 0 0 0] -2.42752e+279 to max(T) [0 0 0 0 0 0 0] 2.43215e+279

ExecutionTime = 101.51 s  ClockTime = 1445 s

Time = 4.25
Courant Number mean: 2.02664 max: 4.96781
diagonal:  Solving for T, Initial residual = 0, Final residual = 0, No Iterations 0
diagonal:  Solving for T, Initial residual = 0, Final residual = 0, No Iterations 0
diagonal:  Solving for T, Initial residual = 0, Final residual = 0, No Iterations 0
diagonal:  Solving for T, Initial residual = 0, Final residual = 0, No Iterations 0
 T goes from min(T) [0 0 0 0 0 0 0] -6.14827e+281 to max(T) [0 0 0 0 0 0 0] 6.43656e+281

ExecutionTime = 102.17 s  ClockTime = 1452 s

Time = 4.275
Courant Number mean: 2.01705 max: 5.00703
diagonal:  Solving for T, Initial residual = 0, Final residual = 0, No Iterations 0
diagonal:  Solving for T, Initial residual = 0, Final residual = 0, No Iterations 0
diagonal:  Solving for T, Initial residual = 0, Final residual = 0, No Iterations 0
diagonal:  Solving for T, Initial residual = 0, Final residual = 0, No Iterations 0
 T goes from min(T) [0 0 0 0 0 0 0] -1.53386e+284 to max(T) [0 0 0 0 0 0 0] 1.59933e+284

ExecutionTime = 102.79 s  ClockTime = 1458 s

Time = 4.3
Courant Number mean: 2.00714 max: 5.04563
diagonal:  Solving for T, Initial residual = 0, Final residual = 0, No Iterations 0
diagonal:  Solving for T, Initial residual = 0, Final residual = 0, No Iterations 0
diagonal:  Solving for T, Initial residual = 0, Final residual = 0, No Iterations 0
diagonal:  Solving for T, Initial residual = 0, Final residual = 0, No Iterations 0
 T goes from min(T) [0 0 0 0 0 0 0] -4.37843e+286 to max(T) [0 0 0 0 0 0 0] 4.20248e+286

ExecutionTime = 103.47 s  ClockTime = 1465 s

Time = 4.325
Courant Number mean: 1.99698 max: 5.08267
diagonal:  Solving for T, Initial residual = 0, Final residual = 0, No Iterations 0
diagonal:  Solving for T, Initial residual = 0, Final residual = 0, No Iterations 0
diagonal:  Solving for T, Initial residual = 0, Final residual = 0, No Iterations 0
diagonal:  Solving for T, Initial residual = 0, Final residual = 0, No Iterations 0
 T goes from min(T) [0 0 0 0 0 0 0] -1.23066e+289 to max(T) [0 0 0 0 0 0 0] 1.24216e+289

ExecutionTime = 104.15 s  ClockTime = 1472 s

Time = 4.35
Courant Number mean: 1.98657 max: 5.11748
diagonal:  Solving for T, Initial residual = 0, Final residual = 0, No Iterations 0
diagonal:  Solving for T, Initial residual = 0, Final residual = 0, No Iterations 0
diagonal:  Solving for T, Initial residual = 0, Final residual = 0, No Iterations 0
diagonal:  Solving for T, Initial residual = 0, Final residual = 0, No Iterations 0
 T goes from min(T) [0 0 0 0 0 0 0] -3.28549e+291 to max(T) [0 0 0 0 0 0 0] 3.4543e+291

ExecutionTime = 104.73 s  ClockTime = 1477 s

Time = 4.375
Courant Number mean: 1.97589 max: 5.15099
diagonal:  Solving for T, Initial residual = 0, Final residual = 0, No Iterations 0
diagonal:  Solving for T, Initial residual = 0, Final residual = 0, No Iterations 0
diagonal:  Solving for T, Initial residual = 0, Final residual = 0, No Iterations 0
diagonal:  Solving for T, Initial residual = 0, Final residual = 0, No Iterations 0
 T goes from min(T) [0 0 0 0 0 0 0] -9.10608e+293 to max(T) [0 0 0 0 0 0 0] 9.35721e+293

ExecutionTime = 105.38 s  ClockTime = 1484 s

Time = 4.4
Courant Number mean: 1.96498 max: 5.18339
diagonal:  Solving for T, Initial residual = 0, Final residual = 0, No Iterations 0
diagonal:  Solving for T, Initial residual = 0, Final residual = 0, No Iterations 0
diagonal:  Solving for T, Initial residual = 0, Final residual = 0, No Iterations 0
diagonal:  Solving for T, Initial residual = 0, Final residual = 0, No Iterations 0
 T goes from min(T) [0 0 0 0 0 0 0] -2.84565e+296 to max(T) [0 0 0 0 0 0 0] 2.76607e+296

ExecutionTime = 105.99 s  ClockTime = 1490 s

Time = 4.425
Courant Number mean: 1.95388 max: 5.21341
diagonal:  Solving for T, Initial residual = 0, Final residual = 0, No Iterations 0
diagonal:  Solving for T, Initial residual = 0, Final residual = 0, No Iterations 0
diagonal:  Solving for T, Initial residual = 0, Final residual = 0, No Iterations 0
diagonal:  Solving for T, Initial residual = 0, Final residual = 0, No Iterations 0
 T goes from min(T) [0 0 0 0 0 0 0] -8.44063e+298 to max(T) [0 0 0 0 0 0 0] 8.60704e+298

ExecutionTime = 106.66 s  ClockTime = 1497 s

Time = 4.45
Courant Number mean: 1.94259 max: 5.24163
diagonal:  Solving for T, Initial residual = 0, Final residual = 0, No Iterations 0
diagonal:  Solving for T, Initial residual = 0, Final residual = 0, No Iterations 0
diagonal:  Solving for T, Initial residual = 0, Final residual = 0, No Iterations 0
diagonal:  Solving for T, Initial residual = 0, Final residual = 0, No Iterations 0
 T goes from min(T) [0 0 0 0 0 0 0] -2.37473e+301 to max(T) [0 0 0 0 0 0 0] 2.58913e+301

ExecutionTime = 107.25 s  ClockTime = 1503 s

Time = 4.475
Courant Number mean: 1.93114 max: 5.26904
diagonal:  Solving for T, Initial residual = 0, Final residual = 0, No Iterations 0
diagonal:  Solving for T, Initial residual = 0, Final residual = 0, No Iterations 0
diagonal:  Solving for T, Initial residual = 0, Final residual = 0, No Iterations 0
diagonal:  Solving for T, Initial residual = 0, Final residual = 0, No Iterations 0
 T goes from min(T) [0 0 0 0 0 0 0] -7.19182e+303 to max(T) [0 0 0 0 0 0 0] 7.14561e+303

ExecutionTime = 107.92 s  ClockTime = 1509 s

Time = 4.5
Courant Number mean: 1.91952 max: 5.29394
diagonal:  Solving for T, Initial residual = 0, Final residual = 0, No Iterations 0
#0  Foam::error::printStack(Foam::Ostream&) at ??:?
#1  Foam::sigFpe::sigHandler(int) at ??:?
#2  ? in "/lib/x86_64-linux-gnu/libc.so.6"
#3  Foam::multiply(Foam::Field<double>&, Foam::UList<double> const&, Foam::UList<double> const&) at ??:?
#4  Foam::tmp<Foam::GeometricField<double, Foam::fvsPatchField, Foam::surfaceMesh> > Foam::operator*<Foam::fvsPatchField, Foam::surfaceMesh>(Foam::GeometricField<double, Foam::fvsPatchField, Foam::surfaceMesh> const&, Foam::tmp<Foam::GeometricField<double, Foam::fvsPatchField, Foam::surfaceMesh> > const&) at ??:?
#5  Foam::fv::gaussConvectionScheme<double>::flux(Foam::GeometricField<double, Foam::fvsPatchField, Foam::surfaceMesh> const&, Foam::GeometricField<double, Foam::fvPatchField, Foam::volMesh> const&) const at ??:?
#6  Foam::fv::gaussConvectionScheme<double>::fvcDiv(Foam::GeometricField<double, Foam::fvsPatchField, Foam::surfaceMesh> const&, Foam::GeometricField<double, Foam::fvPatchField, Foam::volMesh> const&) const at ??:?
#7  ? at /opt/openfoam-dev/src/finiteVolume/lnInclude/fvcDiv.C:170
#8  ? at /opt/openfoam-dev/src/finiteVolume/lnInclude/fvcDiv.C:240
#9  ? at ~/OpenFOAM/sws02hs-dev/AtmosFOAM/applications/solvers/advection/scalarDeformationWithGhosts/scalarDeformationWithGhosts.C:113 (discriminator 1)
#10  __libc_start_main in "/lib/x86_64-linux-gnu/libc.so.6"
#11  ? at ??:?
