/*---------------------------------------------------------------------------*\
| =========                 |                                                 |
| \\      /  F ield         | OpenFOAM: The Open Source CFD Toolbox           |
|  \\    /   O peration     | Version:  dev                                   |
|   \\  /    A nd           | Web:      www.OpenFOAM.org                      |
|    \\/     M anipulation  |                                                 |
\*---------------------------------------------------------------------------*/
Build  : dev-90f39e0d894d
Exec   : scalarDeformationWithGhosts implicit -case orthogonal/120x60/c05_implicit
Date   : May 23 2017
Time   : 20:31:09
Host   : "sws02hw.private.rdg.ac.uk"
PID    : 22894
Case   : orthogonal/120x60/c05_implicit
nProcs : 1
sigFpe : Enabling floating point exception trapping (FOAM_SIGFPE).
fileModificationChecking : Monitoring run-time modified files using timeStampMaster (fileModificationSkew 10)
allowSystemOperations : Allowing user-supplied system call operations

// * * * * * * * * * * * * * * * * * * * * * * * * * * * * * * * * * * * * * //
Create time

Create mesh for time = 0

Reading field T

Reading fields phi (compulsory), U and Uf (optional)

Calculating owner stencils
Calculating neighbour stencils

Calculating scalar transport

Courant Number mean: 0.187253 max: 0.367645
Time = 0.005
Courant Number mean: 0.187248 max: 0.367685
DILUPBiCG:  Solving for T, Initial residual = 0.00673295, Final residual = 3.72943e-11, No Iterations 3
DILUPBiCG:  Solving for T, Initial residual = 3.0138e-05, Final residual = 2.52343e-09, No Iterations 2
DILUPBiCG:  Solving for T, Initial residual = 1.13627e-07, Final residual = 2.62429e-10, No Iterations 1
DILUPBiCG:  Solving for T, Initial residual = 1.01793e-09, Final residual = 1.01793e-09, No Iterations 0
 T goes from min(T) [0 0 0 0 0 0 0] 1.43644e-20 to max(T) [0 0 0 0 0 0 0] 0.951445

ExecutionTime = 2.19 s  ClockTime = 14 s

Time = 0.01
Courant Number mean: 0.187233 max: 0.367697
DILUPBiCG:  Solving for T, Initial residual = 0.00673254, Final residual = 3.67612e-11, No Iterations 3
DILUPBiCG:  Solving for T, Initial residual = 3.01548e-05, Final residual = 3.87982e-09, No Iterations 2
DILUPBiCG:  Solving for T, Initial residual = 1.13443e-07, Final residual = 2.60627e-10, No Iterations 1
DILUPBiCG:  Solving for T, Initial residual = 1.01983e-09, Final residual = 1.01983e-09, No Iterations 0
 T goes from min(T) [0 0 0 0 0 0 0] 1.33073e-20 to max(T) [0 0 0 0 0 0 0] 0.953227

ExecutionTime = 2.31 s  ClockTime = 15 s

Time = 0.015
Courant Number mean: 0.187205 max: 0.367681
DILUPBiCG:  Solving for T, Initial residual = 0.00673012, Final residual = 3.62612e-11, No Iterations 3
DILUPBiCG:  Solving for T, Initial residual = 3.01699e-05, Final residual = 8.35422e-09, No Iterations 2
DILUPBiCG:  Solving for T, Initial residual = 1.13081e-07, Final residual = 2.58711e-10, No Iterations 1
DILUPBiCG:  Solving for T, Initial residual = 1.02525e-09, Final residual = 1.02525e-09, No Iterations 0
 T goes from min(T) [0 0 0 0 0 0 0] 1.30509e-20 to max(T) [0 0 0 0 0 0 0] 0.95397

ExecutionTime = 2.44 s  ClockTime = 17 s

Time = 0.02
Courant Number mean: 0.187168 max: 0.367637
DILUPBiCG:  Solving for T, Initial residual = 0.00673035, Final residual = 3.58034e-11, No Iterations 3
DILUPBiCG:  Solving for T, Initial residual = 3.01897e-05, Final residual = 2.66074e-13, No Iterations 3
DILUPBiCG:  Solving for T, Initial residual = 1.1468e-07, Final residual = 2.58721e-10, No Iterations 1
DILUPBiCG:  Solving for T, Initial residual = 1.03119e-09, Final residual = 1.03119e-09, No Iterations 0
 T goes from min(T) [0 0 0 0 0 0 0] 1.36221e-20 to max(T) [0 0 0 0 0 0 0] 0.953632

ExecutionTime = 2.57 s  ClockTime = 19 s

Time = 0.025
Courant Number mean: 0.187188 max: 0.367653
DILUPBiCG:  Solving for T, Initial residual = 0.00673181, Final residual = 3.54247e-11, No Iterations 3
DILUPBiCG:  Solving for T, Initial residual = 3.02378e-05, Final residual = 6.56544e-09, No Iterations 2
DILUPBiCG:  Solving for T, Initial residual = 1.16673e-07, Final residual = 2.59138e-10, No Iterations 1
DILUPBiCG:  Solving for T, Initial residual = 1.03957e-09, Final residual = 1.03957e-09, No Iterations 0
 T goes from min(T) [0 0 0 0 0 0 0] 1.50751e-20 to max(T) [0 0 0 0 0 0 0] 0.952737

ExecutionTime = 2.7 s  ClockTime = 20 s

Time = 0.03
Courant Number mean: 0.187211 max: 0.367658
DILUPBiCG:  Solving for T, Initial residual = 0.00673497, Final residual = 3.51559e-11, No Iterations 3
DILUPBiCG:  Solving for T, Initial residual = 3.02817e-05, Final residual = 3.5038e-09, No Iterations 2
DILUPBiCG:  Solving for T, Initial residual = 1.16482e-07, Final residual = 2.57279e-10, No Iterations 1
DILUPBiCG:  Solving for T, Initial residual = 1.04705e-09, Final residual = 1.04705e-09, No Iterations 0
 T goes from min(T) [0 0 0 0 0 0 0] 1.74932e-20 to max(T) [0 0 0 0 0 0 0] 0.950916

ExecutionTime = 2.82 s  ClockTime = 22 s

Time = 0.035
Courant Number mean: 0.187224 max: 0.367635
DILUPBiCG:  Solving for T, Initial residual = 0.00673771, Final residual = 3.50965e-11, No Iterations 3
DILUPBiCG:  Solving for T, Initial residual = 3.03055e-05, Final residual = 2.40095e-09, No Iterations 2
DILUPBiCG:  Solving for T, Initial residual = 1.16756e-07, Final residual = 2.55775e-10, No Iterations 1
DILUPBiCG:  Solving for T, Initial residual = 1.05623e-09, Final residual = 1.05623e-09, No Iterations 0
 T goes from min(T) [0 0 0 0 0 0 0] 2.01226e-20 to max(T) [0 0 0 0 0 0 0] 0.951244

ExecutionTime = 2.95 s  ClockTime = 24 s

Time = 0.04
Courant Number mean: 0.187224 max: 0.367583
DILUPBiCG:  Solving for T, Initial residual = 0.00674024, Final residual = 3.5266e-11, No Iterations 3
DILUPBiCG:  Solving for T, Initial residual = 3.03349e-05, Final residual = 1.83489e-09, No Iterations 2
DILUPBiCG:  Solving for T, Initial residual = 1.17194e-07, Final residual = 2.54835e-10, No Iterations 1
DILUPBiCG:  Solving for T, Initial residual = 1.06802e-09, Final residual = 1.06802e-09, No Iterations 0
 T goes from min(T) [0 0 0 0 0 0 0] 1.84968e-20 to max(T) [0 0 0 0 0 0 0] 0.951415

ExecutionTime = 3.1 s  ClockTime = 26 s

Time = 0.045
Courant Number mean: 0.187215 max: 0.367576
DILUPBiCG:  Solving for T, Initial residual = 0.00674137, Final residual = 3.58089e-11, No Iterations 3
DILUPBiCG:  Solving for T, Initial residual = 3.03896e-05, Final residual = 1.49231e-09, No Iterations 2
DILUPBiCG:  Solving for T, Initial residual = 1.17856e-07, Final residual = 2.54056e-10, No Iterations 1
DILUPBiCG:  Solving for T, Initial residual = 1.08036e-09, Final residual = 1.08036e-09, No Iterations 0
 T goes from min(T) [0 0 0 0 0 0 0] 1.77908e-20 to max(T) [0 0 0 0 0 0 0] 0.952222

ExecutionTime = 3.25 s  ClockTime = 29 s

Time = 0.05
Courant Number mean: 0.187196 max: 0.367578
DILUPBiCG:  Solving for T, Initial residual = 0.00674033, Final residual = 3.6794e-11, No Iterations 3
DILUPBiCG:  Solving for T, Initial residual = 3.04466e-05, Final residual = 1.26338e-09, No Iterations 2
DILUPBiCG:  Solving for T, Initial residual = 1.18566e-07, Final residual = 2.53024e-10, No Iterations 1
DILUPBiCG:  Solving for T, Initial residual = 1.09468e-09, Final residual = 1.09468e-09, No Iterations 0
 T goes from min(T) [0 0 0 0 0 0 0] 1.80162e-20 to max(T) [0 0 0 0 0 0 0] 0.953022

ExecutionTime = 3.38 s  ClockTime = 31 s

Time = 0.055
Courant Number mean: 0.187165 max: 0.367551
DILUPBiCG:  Solving for T, Initial residual = 0.00674314, Final residual = 3.79333e-11, No Iterations 3
DILUPBiCG:  Solving for T, Initial residual = 3.05067e-05, Final residual = 1.09952e-09, No Iterations 2
DILUPBiCG:  Solving for T, Initial residual = 1.1932e-07, Final residual = 2.52501e-10, No Iterations 1
DILUPBiCG:  Solving for T, Initial residual = 1.11072e-09, Final residual = 1.11072e-09, No Iterations 0
 T goes from min(T) [0 0 0 0 0 0 0] 1.92119e-20 to max(T) [0 0 0 0 0 0 0] 0.952681

ExecutionTime = 3.52 s  ClockTime = 34 s

Time = 0.06
Courant Number mean: 0.187123 max: 0.367496
DILUPBiCG:  Solving for T, Initial residual = 0.00674675, Final residual = 3.92275e-11, No Iterations 3
DILUPBiCG:  Solving for T, Initial residual = 3.05569e-05, Final residual = 9.7738e-10, No Iterations 2
DILUPBiCG:  Solving for T, Initial residual = 1.20255e-07, Final residual = 2.51655e-10, No Iterations 1
DILUPBiCG:  Solving for T, Initial residual = 1.12748e-09, Final residual = 1.12748e-09, No Iterations 0
 T goes from min(T) [0 0 0 0 0 0 0] 2.14454e-20 to max(T) [0 0 0 0 0 0 0] 0.95116

ExecutionTime = 3.66 s  ClockTime = 37 s

Time = 0.065
Courant Number mean: 0.187112 max: 0.367465
DILUPBiCG:  Solving for T, Initial residual = 0.00674907, Final residual = 4.06659e-11, No Iterations 3
DILUPBiCG:  Solving for T, Initial residual = 3.06387e-05, Final residual = 8.83261e-10, No Iterations 2
DILUPBiCG:  Solving for T, Initial residual = 1.2123e-07, Final residual = 2.51051e-10, No Iterations 1
DILUPBiCG:  Solving for T, Initial residual = 1.14402e-09, Final residual = 1.14402e-09, No Iterations 0
 T goes from min(T) [0 0 0 0 0 0 0] 2.48145e-20 to max(T) [0 0 0 0 0 0 0] 0.952082

ExecutionTime = 3.81 s  ClockTime = 40 s

Time = 0.07
Courant Number mean: 0.187132 max: 0.367459
DILUPBiCG:  Solving for T, Initial residual = 0.00675115, Final residual = 4.22585e-11, No Iterations 3
DILUPBiCG:  Solving for T, Initial residual = 3.07056e-05, Final residual = 8.07552e-10, No Iterations 2
DILUPBiCG:  Solving for T, Initial residual = 1.22255e-07, Final residual = 2.50557e-10, No Iterations 1
DILUPBiCG:  Solving for T, Initial residual = 1.16105e-09, Final residual = 1.16105e-09, No Iterations 0
 T goes from min(T) [0 0 0 0 0 0 0] 2.49865e-20 to max(T) [0 0 0 0 0 0 0] 0.953107

ExecutionTime = 3.96 s  ClockTime = 43 s

Time = 0.075
Courant Number mean: 0.187141 max: 0.367425
DILUPBiCG:  Solving for T, Initial residual = 0.00675346, Final residual = 4.40295e-11, No Iterations 3
DILUPBiCG:  Solving for T, Initial residual = 3.07699e-05, Final residual = 7.46019e-10, No Iterations 2
DILUPBiCG:  Solving for T, Initial residual = 1.2336e-07, Final residual = 2.49684e-10, No Iterations 1
DILUPBiCG:  Solving for T, Initial residual = 1.17893e-09, Final residual = 1.17893e-09, No Iterations 0
 T goes from min(T) [0 0 0 0 0 0 0] 2.36001e-20 to max(T) [0 0 0 0 0 0 0] 0.952935

ExecutionTime = 4.09 s  ClockTime = 45 s

Time = 0.08
Courant Number mean: 0.187137 max: 0.367363
DILUPBiCG:  Solving for T, Initial residual = 0.00675561, Final residual = 4.59724e-11, No Iterations 3
DILUPBiCG:  Solving for T, Initial residual = 3.08549e-05, Final residual = 6.95418e-10, No Iterations 2
DILUPBiCG:  Solving for T, Initial residual = 1.24381e-07, Final residual = 2.49606e-10, No Iterations 1
DILUPBiCG:  Solving for T, Initial residual = 1.20172e-09, Final residual = 1.20172e-09, No Iterations 0
 T goes from min(T) [0 0 0 0 0 0 0] 2.32503e-20 to max(T) [0 0 0 0 0 0 0] 0.951952

ExecutionTime = 4.22 s  ClockTime = 48 s

Time = 0.085
Courant Number mean: 0.187124 max: 0.367308
DILUPBiCG:  Solving for T, Initial residual = 0.00675713, Final residual = 4.81377e-11, No Iterations 3
DILUPBiCG:  Solving for T, Initial residual = 3.0942e-05, Final residual = 6.53171e-10, No Iterations 2
DILUPBiCG:  Solving for T, Initial residual = 1.25555e-07, Final residual = 2.49223e-10, No Iterations 1
DILUPBiCG:  Solving for T, Initial residual = 1.22616e-09, Final residual = 1.22616e-09, No Iterations 0
 T goes from min(T) [0 0 0 0 0 0 0] 2.39499e-20 to max(T) [0 0 0 0 0 0 0] 0.95072

ExecutionTime = 4.37 s  ClockTime = 50 s

Time = 0.09
Courant Number mean: 0.187102 max: 0.367299
DILUPBiCG:  Solving for T, Initial residual = 0.00675896, Final residual = 5.05107e-11, No Iterations 3
DILUPBiCG:  Solving for T, Initial residual = 3.10233e-05, Final residual = 6.17111e-10, No Iterations 2
DILUPBiCG:  Solving for T, Initial residual = 1.26714e-07, Final residual = 2.48452e-10, No Iterations 1
DILUPBiCG:  Solving for T, Initial residual = 1.25031e-09, Final residual = 1.25031e-09, No Iterations 0
 T goes from min(T) [0 0 0 0 0 0 0] 2.57406e-20 to max(T) [0 0 0 0 0 0 0] 0.950595

ExecutionTime = 4.5 s  ClockTime = 53 s

Time = 0.095
Courant Number mean: 0.187067 max: 0.367261
DILUPBiCG:  Solving for T, Initial residual = 0.00676142, Final residual = 5.30493e-11, No Iterations 3
DILUPBiCG:  Solving for T, Initial residual = 3.11125e-05, Final residual = 5.86488e-10, No Iterations 2
DILUPBiCG:  Solving for T, Initial residual = 1.28051e-07, Final residual = 2.48341e-10, No Iterations 1
DILUPBiCG:  Solving for T, Initial residual = 1.27514e-09, Final residual = 1.27514e-09, No Iterations 0
 T goes from min(T) [0 0 0 0 0 0 0] 2.86947e-20 to max(T) [0 0 0 0 0 0 0] 0.951906

ExecutionTime = 4.64 s  ClockTime = 56 s

Time = 0.1
Courant Number mean: 0.187021 max: 0.367195
DILUPBiCG:  Solving for T, Initial residual = 0.00676345, Final residual = 5.57296e-11, No Iterations 3
DILUPBiCG:  Solving for T, Initial residual = 3.11957e-05, Final residual = 5.60155e-10, No Iterations 2
DILUPBiCG:  Solving for T, Initial residual = 1.29405e-07, Final residual = 2.47737e-10, No Iterations 1
DILUPBiCG:  Solving for T, Initial residual = 1.30166e-09, Final residual = 1.30166e-09, No Iterations 0
 T goes from min(T) [0 0 0 0 0 0 0] 3.26784e-20 to max(T) [0 0 0 0 0 0 0] 0.953306

ExecutionTime = 4.77 s  ClockTime = 58 s

Time = 0.105
Courant Number mean: 0.186979 max: 0.367118
DILUPBiCG:  Solving for T, Initial residual = 0.00676466, Final residual = 5.84494e-11, No Iterations 3
DILUPBiCG:  Solving for T, Initial residual = 3.12731e-05, Final residual = 5.3683e-10, No Iterations 2
DILUPBiCG:  Solving for T, Initial residual = 1.30896e-07, Final residual = 2.4777e-10, No Iterations 1
DILUPBiCG:  Solving for T, Initial residual = 1.32603e-09, Final residual = 1.32603e-09, No Iterations 0
 T goes from min(T) [0 0 0 0 0 0 0] 3.02617e-20 to max(T) [0 0 0 0 0 0 0] 0.953829

ExecutionTime = 4.9 s  ClockTime = 61 s

Time = 0.11
Courant Number mean: 0.186995 max: 0.367101
DILUPBiCG:  Solving for T, Initial residual = 0.00676442, Final residual = 6.10023e-11, No Iterations 3
DILUPBiCG:  Solving for T, Initial residual = 3.13679e-05, Final residual = 5.15753e-10, No Iterations 2
DILUPBiCG:  Solving for T, Initial residual = 1.32413e-07, Final residual = 2.47524e-10, No Iterations 1
DILUPBiCG:  Solving for T, Initial residual = 1.34979e-09, Final residual = 1.34979e-09, No Iterations 0
 T goes from min(T) [0 0 0 0 0 0 0] 2.9016e-20 to max(T) [0 0 0 0 0 0 0] 0.953812

ExecutionTime = 5.03 s  ClockTime = 63 s

Time = 0.115
Courant Number mean: 0.187 max: 0.367056
DILUPBiCG:  Solving for T, Initial residual = 0.00676833, Final residual = 6.32963e-11, No Iterations 3
DILUPBiCG:  Solving for T, Initial residual = 3.14752e-05, Final residual = 4.97267e-10, No Iterations 2
DILUPBiCG:  Solving for T, Initial residual = 1.3381e-07, Final residual = 2.46826e-10, No Iterations 1
DILUPBiCG:  Solving for T, Initial residual = 1.37738e-09, Final residual = 1.37738e-09, No Iterations 0
 T goes from min(T) [0 0 0 0 0 0 0] 2.89176e-20 to max(T) [0 0 0 0 0 0 0] 0.952672

ExecutionTime = 5.16 s  ClockTime = 65 s

Time = 0.12
Courant Number mean: 0.186994 max: 0.366983
DILUPBiCG:  Solving for T, Initial residual = 0.00677004, Final residual = 6.50321e-11, No Iterations 3
DILUPBiCG:  Solving for T, Initial residual = 3.15815e-05, Final residual = 4.80762e-10, No Iterations 2
DILUPBiCG:  Solving for T, Initial residual = 1.35315e-07, Final residual = 2.46945e-10, No Iterations 1
DILUPBiCG:  Solving for T, Initial residual = 1.4088e-09, Final residual = 1.4088e-09, No Iterations 0
 T goes from min(T) [0 0 0 0 0 0 0] 2.99744e-20 to max(T) [0 0 0 0 0 0 0] 0.950509

ExecutionTime = 5.3 s  ClockTime = 68 s

Time = 0.125
Courant Number mean: 0.186976 max: 0.366881
DILUPBiCG:  Solving for T, Initial residual = 0.00677207, Final residual = 6.58994e-11, No Iterations 3
DILUPBiCG:  Solving for T, Initial residual = 3.16908e-05, Final residual = 4.66002e-10, No Iterations 2
DILUPBiCG:  Solving for T, Initial residual = 1.36884e-07, Final residual = 2.46658e-10, No Iterations 1
DILUPBiCG:  Solving for T, Initial residual = 1.44051e-09, Final residual = 1.44051e-09, No Iterations 0
 T goes from min(T) [0 0 0 0 0 0 0] 3.2225e-20 to max(T) [0 0 0 0 0 0 0] 0.951098

ExecutionTime = 5.44 s  ClockTime = 71 s

Time = 0.13
Courant Number mean: 0.186949 max: 0.366861
DILUPBiCG:  Solving for T, Initial residual = 0.0067725, Final residual = 6.55967e-11, No Iterations 3
DILUPBiCG:  Solving for T, Initial residual = 3.17904e-05, Final residual = 4.52656e-10, No Iterations 2
DILUPBiCG:  Solving for T, Initial residual = 1.38463e-07, Final residual = 2.46142e-10, No Iterations 1
DILUPBiCG:  Solving for T, Initial residual = 1.47383e-09, Final residual = 1.47383e-09, No Iterations 0
 T goes from min(T) [0 0 0 0 0 0 0] 3.57394e-20 to max(T) [0 0 0 0 0 0 0] 0.95293

ExecutionTime = 5.57 s  ClockTime = 73 s

Time = 0.135
Courant Number mean: 0.186912 max: 0.366812
DILUPBiCG:  Solving for T, Initial residual = 0.00677396, Final residual = 6.38977e-11, No Iterations 3
DILUPBiCG:  Solving for T, Initial residual = 3.18996e-05, Final residual = 4.40818e-10, No Iterations 2
DILUPBiCG:  Solving for T, Initial residual = 1.40286e-07, Final residual = 2.46241e-10, No Iterations 1
DILUPBiCG:  Solving for T, Initial residual = 1.50804e-09, Final residual = 1.50804e-09, No Iterations 0
 T goes from min(T) [0 0 0 0 0 0 0] 3.81079e-20 to max(T) [0 0 0 0 0 0 0] 0.953923

ExecutionTime = 5.71 s  ClockTime = 76 s

Time = 0.14
Courant Number mean: 0.186862 max: 0.366735
DILUPBiCG:  Solving for T, Initial residual = 0.00677483, Final residual = 6.07535e-11, No Iterations 3
DILUPBiCG:  Solving for T, Initial residual = 3.20149e-05, Final residual = 4.30221e-10, No Iterations 2
DILUPBiCG:  Solving for T, Initial residual = 1.41989e-07, Final residual = 2.45978e-10, No Iterations 1
DILUPBiCG:  Solving for T, Initial residual = 1.5445e-09, Final residual = 1.5445e-09, No Iterations 0
 T goes from min(T) [0 0 0 0 0 0 0] 3.56075e-20 to max(T) [0 0 0 0 0 0 0] 0.954112

ExecutionTime = 5.83 s  ClockTime = 78 s

Time = 0.145
Courant Number mean: 0.186803 max: 0.36663
DILUPBiCG:  Solving for T, Initial residual = 0.00677363, Final residual = 5.63413e-11, No Iterations 3
DILUPBiCG:  Solving for T, Initial residual = 3.21352e-05, Final residual = 4.20413e-10, No Iterations 2
DILUPBiCG:  Solving for T, Initial residual = 1.43857e-07, Final residual = 2.45883e-10, No Iterations 1
DILUPBiCG:  Solving for T, Initial residual = 1.58069e-09, Final residual = 1.58069e-09, No Iterations 0
 T goes from min(T) [0 0 0 0 0 0 0] 3.43923e-20 to max(T) [0 0 0 0 0 0 0] 0.953531

ExecutionTime = 5.97 s  ClockTime = 81 s

Time = 0.15
Courant Number mean: 0.186801 max: 0.366584
DILUPBiCG:  Solving for T, Initial residual = 0.00677654, Final residual = 5.09707e-11, No Iterations 3
DILUPBiCG:  Solving for T, Initial residual = 3.22582e-05, Final residual = 4.10619e-10, No Iterations 2
DILUPBiCG:  Solving for T, Initial residual = 1.45723e-07, Final residual = 2.4592e-10, No Iterations 1
DILUPBiCG:  Solving for T, Initial residual = 1.61495e-09, Final residual = 1.61495e-09, No Iterations 0
 T goes from min(T) [0 0 0 0 0 0 0] 3.44274e-20 to max(T) [0 0 0 0 0 0 0] 0.952423

ExecutionTime = 6.09 s  ClockTime = 83 s

Time = 0.155
Courant Number mean: 0.186802 max: 0.366528
DILUPBiCG:  Solving for T, Initial residual = 0.00678061, Final residual = 4.51905e-11, No Iterations 3
DILUPBiCG:  Solving for T, Initial residual = 3.2373e-05, Final residual = 4.01583e-10, No Iterations 2
DILUPBiCG:  Solving for T, Initial residual = 1.47536e-07, Final residual = 2.45562e-10, No Iterations 1
DILUPBiCG:  Solving for T, Initial residual = 1.65111e-09, Final residual = 1.65111e-09, No Iterations 0
 T goes from min(T) [0 0 0 0 0 0 0] 3.57112e-20 to max(T) [0 0 0 0 0 0 0] 0.950529

ExecutionTime = 6.22 s  ClockTime = 86 s

Time = 0.16
Courant Number mean: 0.186792 max: 0.366444
DILUPBiCG:  Solving for T, Initial residual = 0.00678131, Final residual = 3.94329e-11, No Iterations 3
DILUPBiCG:  Solving for T, Initial residual = 3.24948e-05, Final residual = 3.9325e-10, No Iterations 2
DILUPBiCG:  Solving for T, Initial residual = 1.49339e-07, Final residual = 2.45405e-10, No Iterations 1
DILUPBiCG:  Solving for T, Initial residual = 1.68719e-09, Final residual = 1.68719e-09, No Iterations 0
 T goes from min(T) [0 0 0 0 0 0 0] 3.82746e-20 to max(T) [0 0 0 0 0 0 0] 0.952133

ExecutionTime = 6.35 s  ClockTime = 88 s

Time = 0.165
Courant Number mean: 0.186771 max: 0.366332
DILUPBiCG:  Solving for T, Initial residual = 0.00677928, Final residual = 3.40253e-11, No Iterations 3
DILUPBiCG:  Solving for T, Initial residual = 3.26185e-05, Final residual = 3.85593e-10, No Iterations 2
DILUPBiCG:  Solving for T, Initial residual = 1.51178e-07, Final residual = 2.45152e-10, No Iterations 1
DILUPBiCG:  Solving for T, Initial residual = 1.72524e-09, Final residual = 1.72524e-09, No Iterations 0
 T goes from min(T) [0 0 0 0 0 0 0] 4.218e-20 to max(T) [0 0 0 0 0 0 0] 0.95352

ExecutionTime = 6.48 s  ClockTime = 91 s

Time = 0.17
Courant Number mean: 0.18674 max: 0.366264
DILUPBiCG:  Solving for T, Initial residual = 0.00678131, Final residual = 2.91887e-11, No Iterations 3
DILUPBiCG:  Solving for T, Initial residual = 3.27284e-05, Final residual = 3.7836e-10, No Iterations 2
DILUPBiCG:  Solving for T, Initial residual = 1.53223e-07, Final residual = 2.44936e-10, No Iterations 1
DILUPBiCG:  Solving for T, Initial residual = 1.76347e-09, Final residual = 1.76347e-09, No Iterations 0
 T goes from min(T) [0 0 0 0 0 0 0] 4.36265e-20 to max(T) [0 0 0 0 0 0 0] 0.954139

ExecutionTime = 6.61 s  ClockTime = 93 s

Time = 0.175
Courant Number mean: 0.186698 max: 0.366204
DILUPBiCG:  Solving for T, Initial residual = 0.00678306, Final residual = 2.50009e-11, No Iterations 3
DILUPBiCG:  Solving for T, Initial residual = 3.28527e-05, Final residual = 3.71516e-10, No Iterations 2
DILUPBiCG:  Solving for T, Initial residual = 1.55468e-07, Final residual = 2.45242e-10, No Iterations 1
DILUPBiCG:  Solving for T, Initial residual = 1.80716e-09, Final residual = 1.80716e-09, No Iterations 0
 T goes from min(T) [0 0 0 0 0 0 0] 4.09384e-20 to max(T) [0 0 0 0 0 0 0] 0.954025

ExecutionTime = 6.74 s  ClockTime = 96 s

Time = 0.18
Courant Number mean: 0.186646 max: 0.366116
DILUPBiCG:  Solving for T, Initial residual = 0.0067823, Final residual = 2.14598e-11, No Iterations 3
DILUPBiCG:  Solving for T, Initial residual = 3.29652e-05, Final residual = 3.65267e-10, No Iterations 2
DILUPBiCG:  Solving for T, Initial residual = 1.57575e-07, Final residual = 2.45375e-10, No Iterations 1
DILUPBiCG:  Solving for T, Initial residual = 1.85333e-09, Final residual = 1.85333e-09, No Iterations 0
 T goes from min(T) [0 0 0 0 0 0 0] 3.96479e-20 to max(T) [0 0 0 0 0 0 0] 0.953212

ExecutionTime = 6.86 s  ClockTime = 98 s

Time = 0.185
Courant Number mean: 0.186582 max: 0.366
DILUPBiCG:  Solving for T, Initial residual = 0.00677965, Final residual = 1.85606e-11, No Iterations 3
DILUPBiCG:  Solving for T, Initial residual = 3.31066e-05, Final residual = 3.5942e-10, No Iterations 2
DILUPBiCG:  Solving for T, Initial residual = 1.59821e-07, Final residual = 2.45177e-10, No Iterations 1
DILUPBiCG:  Solving for T, Initial residual = 1.90335e-09, Final residual = 1.90335e-09, No Iterations 0
 T goes from min(T) [0 0 0 0 0 0 0] 3.97051e-20 to max(T) [0 0 0 0 0 0 0] 0.951738

ExecutionTime = 6.99 s  ClockTime = 100 s

Time = 0.19
Courant Number mean: 0.18655 max: 0.365909
DILUPBiCG:  Solving for T, Initial residual = 0.00678219, Final residual = 1.61988e-11, No Iterations 3
DILUPBiCG:  Solving for T, Initial residual = 3.32543e-05, Final residual = 3.53495e-10, No Iterations 2
DILUPBiCG:  Solving for T, Initial residual = 1.6205e-07, Final residual = 2.45361e-10, No Iterations 1
DILUPBiCG:  Solving for T, Initial residual = 1.95006e-09, Final residual = 1.95006e-09, No Iterations 0
 T goes from min(T) [0 0 0 0 0 0 0] 4.10953e-20 to max(T) [0 0 0 0 0 0 0] 0.951104

ExecutionTime = 7.13 s  ClockTime = 103 s

Time = 0.195
Courant Number mean: 0.186547 max: 0.365842
DILUPBiCG:  Solving for T, Initial residual = 0.0067836, Final residual = 1.42986e-11, No Iterations 3
DILUPBiCG:  Solving for T, Initial residual = 3.33923e-05, Final residual = 3.47596e-10, No Iterations 2
DILUPBiCG:  Solving for T, Initial residual = 1.64018e-07, Final residual = 2.45252e-10, No Iterations 1
DILUPBiCG:  Solving for T, Initial residual = 1.99217e-09, Final residual = 1.99217e-09, No Iterations 0
 T goes from min(T) [0 0 0 0 0 0 0] 4.38372e-20 to max(T) [0 0 0 0 0 0 0] 0.952841

ExecutionTime = 7.26 s  ClockTime = 105 s

Time = 0.2
Courant Number mean: 0.186533 max: 0.365747
DILUPBiCG:  Solving for T, Initial residual = 0.00678488, Final residual = 1.27966e-11, No Iterations 3
DILUPBiCG:  Solving for T, Initial residual = 3.35188e-05, Final residual = 3.41942e-10, No Iterations 2
DILUPBiCG:  Solving for T, Initial residual = 1.663e-07, Final residual = 2.45297e-10, No Iterations 1
DILUPBiCG:  Solving for T, Initial residual = 2.03152e-09, Final residual = 2.03152e-09, No Iterations 0
 T goes from min(T) [0 0 0 0 0 0 0] 4.79818e-20 to max(T) [0 0 0 0 0 0 0] 0.953847

ExecutionTime = 7.37 s  ClockTime = 108 s

Time = 0.205
Courant Number mean: 0.186508 max: 0.365624
DILUPBiCG:  Solving for T, Initial residual = 0.00678461, Final residual = 1.16642e-11, No Iterations 3
DILUPBiCG:  Solving for T, Initial residual = 3.36308e-05, Final residual = 3.3649e-10, No Iterations 2
DILUPBiCG:  Solving for T, Initial residual = 1.68878e-07, Final residual = 2.45541e-10, No Iterations 1
DILUPBiCG:  Solving for T, Initial residual = 2.07465e-09, Final residual = 2.07465e-09, No Iterations 0
 T goes from min(T) [0 0 0 0 0 0 0] 4.92641e-20 to max(T) [0 0 0 0 0 0 0] 0.954155

ExecutionTime = 7.49 s  ClockTime = 110 s

Time = 0.21
Courant Number mean: 0.186473 max: 0.365509
DILUPBiCG:  Solving for T, Initial residual = 0.0067863, Final residual = 1.0928e-11, No Iterations 3
DILUPBiCG:  Solving for T, Initial residual = 3.37882e-05, Final residual = 3.31304e-10, No Iterations 2
DILUPBiCG:  Solving for T, Initial residual = 1.7123e-07, Final residual = 2.45663e-10, No Iterations 1
DILUPBiCG:  Solving for T, Initial residual = 2.12379e-09, Final residual = 2.12379e-09, No Iterations 0
 T goes from min(T) [0 0 0 0 0 0 0] 4.62915e-20 to max(T) [0 0 0 0 0 0 0] 0.953797

ExecutionTime = 7.61 s  ClockTime = 112 s

Time = 0.215
Courant Number mean: 0.186428 max: 0.365438
DILUPBiCG:  Solving for T, Initial residual = 0.0067876, Final residual = 1.04794e-11, No Iterations 3
DILUPBiCG:  Solving for T, Initial residual = 3.39605e-05, Final residual = 3.26514e-10, No Iterations 2
DILUPBiCG:  Solving for T, Initial residual = 1.73769e-07, Final residual = 2.45839e-10, No Iterations 1
DILUPBiCG:  Solving for T, Initial residual = 2.17874e-09, Final residual = 2.17874e-09, No Iterations 0
 T goes from min(T) [0 0 0 0 0 0 0] 4.48296e-20 to max(T) [0 0 0 0 0 0 0] 0.952807

ExecutionTime = 7.75 s  ClockTime = 115 s

Time = 0.22
Courant Number mean: 0.186372 max: 0.365339
DILUPBiCG:  Solving for T, Initial residual = 0.00678542, Final residual = 1.01892e-11, No Iterations 3
DILUPBiCG:  Solving for T, Initial residual = 3.41159e-05, Final residual = 3.21918e-10, No Iterations 2
DILUPBiCG:  Solving for T, Initial residual = 1.76173e-07, Final residual = 2.46351e-10, No Iterations 1
DILUPBiCG:  Solving for T, Initial residual = 2.2352e-09, Final residual = 2.2352e-09, No Iterations 0
 T goes from min(T) [0 0 0 0 0 0 0] 4.481e-20 to max(T) [0 0 0 0 0 0 0] 0.951221

ExecutionTime = 7.88 s  ClockTime = 117 s

Time = 0.225
Courant Number mean: 0.186305 max: 0.365212
DILUPBiCG:  Solving for T, Initial residual = 0.00678182, Final residual = 9.99989e-12, No Iterations 3
DILUPBiCG:  Solving for T, Initial residual = 3.42603e-05, Final residual = 3.17652e-10, No Iterations 2
DILUPBiCG:  Solving for T, Initial residual = 1.78525e-07, Final residual = 2.46684e-10, No Iterations 1
DILUPBiCG:  Solving for T, Initial residual = 2.29529e-09, Final residual = 2.29529e-09, No Iterations 0
 T goes from min(T) [0 0 0 0 0 0 0] 4.62015e-20 to max(T) [0 0 0 0 0 0 0] 0.951865

ExecutionTime = 8.01 s  ClockTime = 120 s

Time = 0.23
Courant Number mean: 0.186242 max: 0.365075
DILUPBiCG:  Solving for T, Initial residual = 0.00678402, Final residual = 9.86899e-12, No Iterations 3
DILUPBiCG:  Solving for T, Initial residual = 3.44132e-05, Final residual = 3.13415e-10, No Iterations 2
DILUPBiCG:  Solving for T, Initial residual = 1.81394e-07, Final residual = 2.46979e-10, No Iterations 1
DILUPBiCG:  Solving for T, Initial residual = 2.35865e-09, Final residual = 2.35865e-09, No Iterations 0
 T goes from min(T) [0 0 0 0 0 0 0] 4.90072e-20 to max(T) [0 0 0 0 0 0 0] 0.953247

ExecutionTime = 8.14 s  ClockTime = 123 s

Time = 0.235
Courant Number mean: 0.186235 max: 0.364997
DILUPBiCG:  Solving for T, Initial residual = 0.00678607, Final residual = 9.79589e-12, No Iterations 3
DILUPBiCG:  Solving for T, Initial residual = 3.45559e-05, Final residual = 3.08477e-10, No Iterations 2
DILUPBiCG:  Solving for T, Initial residual = 1.8401e-07, Final residual = 2.47632e-10, No Iterations 1
DILUPBiCG:  Solving for T, Initial residual = 2.40142e-09, Final residual = 2.40142e-09, No Iterations 0
 T goes from min(T) [0 0 0 0 0 0 0] 5.32639e-20 to max(T) [0 0 0 0 0 0 0] 0.953963

ExecutionTime = 8.3 s  ClockTime = 126 s

Time = 0.24
Courant Number mean: 0.186216 max: 0.364891
DILUPBiCG:  Solving for T, Initial residual = 0.00678736, Final residual = 9.76633e-12, No Iterations 3
DILUPBiCG:  Solving for T, Initial residual = 3.46844e-05, Final residual = 3.03609e-10, No Iterations 2
DILUPBiCG:  Solving for T, Initial residual = 1.86519e-07, Final residual = 2.48089e-10, No Iterations 1
DILUPBiCG:  Solving for T, Initial residual = 2.44692e-09, Final residual = 2.44692e-09, No Iterations 0
 T goes from min(T) [0 0 0 0 0 0 0] 5.5076e-20 to max(T) [0 0 0 0 0 0 0] 0.954045

ExecutionTime = 8.43 s  ClockTime = 129 s

Time = 0.245
Courant Number mean: 0.186189 max: 0.364757
DILUPBiCG:  Solving for T, Initial residual = 0.0067856, Final residual = 9.7489e-12, No Iterations 3
DILUPBiCG:  Solving for T, Initial residual = 3.48253e-05, Final residual = 2.99094e-10, No Iterations 2
DILUPBiCG:  Solving for T, Initial residual = 1.89313e-07, Final residual = 2.48369e-10, No Iterations 1
DILUPBiCG:  Solving for T, Initial residual = 2.49788e-09, Final residual = 2.49788e-09, No Iterations 0
 T goes from min(T) [0 0 0 0 0 0 0] 5.17249e-20 to max(T) [0 0 0 0 0 0 0] 0.953523

ExecutionTime = 8.59 s  ClockTime = 132 s

Time = 0.25
Courant Number mean: 0.18615 max: 0.364596
DILUPBiCG:  Solving for T, Initial residual = 0.00678561, Final residual = 9.73526e-12, No Iterations 3
DILUPBiCG:  Solving for T, Initial residual = 3.49869e-05, Final residual = 2.94828e-10, No Iterations 2
DILUPBiCG:  Solving for T, Initial residual = 1.92094e-07, Final residual = 2.48815e-10, No Iterations 1
DILUPBiCG:  Solving for T, Initial residual = 2.55266e-09, Final residual = 2.55266e-09, No Iterations 0
 T goes from min(T) [0 0 0 0 0 0 0] 5.00006e-20 to max(T) [0 0 0 0 0 0 0] 0.952431

ExecutionTime = 8.72 s  ClockTime = 135 s

Time = 0.255
Courant Number mean: 0.186101 max: 0.364514
DILUPBiCG:  Solving for T, Initial residual = 0.00678805, Final residual = 9.71996e-12, No Iterations 3
DILUPBiCG:  Solving for T, Initial residual = 3.51708e-05, Final residual = 2.90866e-10, No Iterations 2
DILUPBiCG:  Solving for T, Initial residual = 1.94691e-07, Final residual = 2.49412e-10, No Iterations 1
DILUPBiCG:  Solving for T, Initial residual = 2.61764e-09, Final residual = 2.61764e-09, No Iterations 0
 T goes from min(T) [0 0 0 0 0 0 0] 4.98132e-20 to max(T) [0 0 0 0 0 0 0] 0.950851

ExecutionTime = 8.86 s  ClockTime = 138 s

Time = 0.26
Courant Number mean: 0.186041 max: 0.364404
DILUPBiCG:  Solving for T, Initial residual = 0.00678872, Final residual = 9.70379e-12, No Iterations 3
DILUPBiCG:  Solving for T, Initial residual = 3.53373e-05, Final residual = 2.86883e-10, No Iterations 2
DILUPBiCG:  Solving for T, Initial residual = 1.97192e-07, Final residual = 2.50121e-10, No Iterations 1
DILUPBiCG:  Solving for T, Initial residual = 2.68732e-09, Final residual = 2.68732e-09, No Iterations 0
 T goes from min(T) [0 0 0 0 0 0 0] 5.11117e-20 to max(T) [0 0 0 0 0 0 0] 0.951958

ExecutionTime = 8.99 s  ClockTime = 140 s

Time = 0.265
Courant Number mean: 0.185971 max: 0.364267
DILUPBiCG:  Solving for T, Initial residual = 0.00678446, Final residual = 9.71029e-12, No Iterations 3
DILUPBiCG:  Solving for T, Initial residual = 3.54852e-05, Final residual = 2.82933e-10, No Iterations 2
DILUPBiCG:  Solving for T, Initial residual = 1.99956e-07, Final residual = 2.50916e-10, No Iterations 1
DILUPBiCG:  Solving for T, Initial residual = 2.75936e-09, Final residual = 2.75936e-09, No Iterations 0
 T goes from min(T) [0 0 0 0 0 0 0] 5.38817e-20 to max(T) [0 0 0 0 0 0 0] 0.953099

ExecutionTime = 9.12 s  ClockTime = 142 s

Time = 0.27
Courant Number mean: 0.185892 max: 0.364102
DILUPBiCG:  Solving for T, Initial residual = 0.00678452, Final residual = 9.72917e-12, No Iterations 3
DILUPBiCG:  Solving for T, Initial residual = 3.56176e-05, Final residual = 2.78996e-10, No Iterations 2
DILUPBiCG:  Solving for T, Initial residual = 2.03146e-07, Final residual = 2.52234e-10, No Iterations 1
DILUPBiCG:  Solving for T, Initial residual = 2.84106e-09, Final residual = 2.84106e-09, No Iterations 0
 T goes from min(T) [0 0 0 0 0 0 0] 5.81434e-20 to max(T) [0 0 0 0 0 0 0] 0.953634

ExecutionTime = 9.24 s  ClockTime = 145 s

Time = 0.275
Courant Number mean: 0.185867 max: 0.363995
DILUPBiCG:  Solving for T, Initial residual = 0.00678653, Final residual = 9.76727e-12, No Iterations 3
DILUPBiCG:  Solving for T, Initial residual = 3.57667e-05, Final residual = 2.74623e-10, No Iterations 2
DILUPBiCG:  Solving for T, Initial residual = 2.06213e-07, Final residual = 2.53009e-10, No Iterations 1
DILUPBiCG:  Solving for T, Initial residual = 2.89609e-09, Final residual = 2.89609e-09, No Iterations 0
 T goes from min(T) [0 0 0 0 0 0 0] 6.11014e-20 to max(T) [0 0 0 0 0 0 0] 0.953817

ExecutionTime = 9.36 s  ClockTime = 147 s

Time = 0.28
Courant Number mean: 0.185844 max: 0.363878
DILUPBiCG:  Solving for T, Initial residual = 0.0067886, Final residual = 9.81924e-12, No Iterations 3
DILUPBiCG:  Solving for T, Initial residual = 3.59592e-05, Final residual = 2.70574e-10, No Iterations 2
DILUPBiCG:  Solving for T, Initial residual = 2.09266e-07, Final residual = 2.54057e-10, No Iterations 1
DILUPBiCG:  Solving for T, Initial residual = 2.94036e-09, Final residual = 2.94036e-09, No Iterations 0
 T goes from min(T) [0 0 0 0 0 0 0] 5.72746e-20 to max(T) [0 0 0 0 0 0 0] 0.953

ExecutionTime = 9.5 s  ClockTime = 149 s

Time = 0.285
Courant Number mean: 0.185812 max: 0.363734
DILUPBiCG:  Solving for T, Initial residual = 0.00678967, Final residual = 9.86436e-12, No Iterations 3
DILUPBiCG:  Solving for T, Initial residual = 3.61466e-05, Final residual = 2.66627e-10, No Iterations 2
DILUPBiCG:  Solving for T, Initial residual = 2.12321e-07, Final residual = 2.55325e-10, No Iterations 1
DILUPBiCG:  Solving for T, Initial residual = 2.99678e-09, Final residual = 2.99678e-09, No Iterations 0
 T goes from min(T) [0 0 0 0 0 0 0] 5.5196e-20 to max(T) [0 0 0 0 0 0 0] 0.951892

ExecutionTime = 9.65 s  ClockTime = 153 s

Time = 0.29
Courant Number mean: 0.185771 max: 0.363562
DILUPBiCG:  Solving for T, Initial residual = 0.00678924, Final residual = 9.90776e-12, No Iterations 3
DILUPBiCG:  Solving for T, Initial residual = 3.6346e-05, Final residual = 2.6285e-10, No Iterations 2
DILUPBiCG:  Solving for T, Initial residual = 2.15584e-07, Final residual = 2.56537e-10, No Iterations 1
DILUPBiCG:  Solving for T, Initial residual = 3.061e-09, Final residual = 3.061e-09, No Iterations 0
 T goes from min(T) [0 0 0 0 0 0 0] 5.47509e-20 to max(T) [0 0 0 0 0 0 0] 0.950297

ExecutionTime = 9.78 s  ClockTime = 157 s

Time = 0.295
Courant Number mean: 0.185718 max: 0.363433
DILUPBiCG:  Solving for T, Initial residual = 0.00679091, Final residual = 9.95009e-12, No Iterations 3
DILUPBiCG:  Solving for T, Initial residual = 3.65645e-05, Final residual = 2.59202e-10, No Iterations 2
DILUPBiCG:  Solving for T, Initial residual = 2.18621e-07, Final residual = 2.57391e-10, No Iterations 1
DILUPBiCG:  Solving for T, Initial residual = 3.13817e-09, Final residual = 3.13817e-09, No Iterations 0
 T goes from min(T) [0 0 0 0 0 0 0] 5.58667e-20 to max(T) [0 0 0 0 0 0 0] 0.951257

ExecutionTime = 9.93 s  ClockTime = 161 s

Time = 0.3
Courant Number mean: 0.185654 max: 0.363312
DILUPBiCG:  Solving for T, Initial residual = 0.00679221, Final residual = 1.00124e-11, No Iterations 3
DILUPBiCG:  Solving for T, Initial residual = 3.67523e-05, Final residual = 2.55505e-10, No Iterations 2
DILUPBiCG:  Solving for T, Initial residual = 2.21556e-07, Final residual = 2.58521e-10, No Iterations 1
DILUPBiCG:  Solving for T, Initial residual = 3.22047e-09, Final residual = 3.22047e-09, No Iterations 0
 T goes from min(T) [0 0 0 0 0 0 0] 5.85096e-20 to max(T) [0 0 0 0 0 0 0] 0.952754

ExecutionTime = 10.06 s  ClockTime = 164 s

Time = 0.305
Courant Number mean: 0.18558 max: 0.363164
DILUPBiCG:  Solving for T, Initial residual = 0.0067934, Final residual = 1.00797e-11, No Iterations 3
DILUPBiCG:  Solving for T, Initial residual = 3.69439e-05, Final residual = 2.51803e-10, No Iterations 2
DILUPBiCG:  Solving for T, Initial residual = 2.2454e-07, Final residual = 2.60725e-10, No Iterations 1
DILUPBiCG:  Solving for T, Initial residual = 3.31187e-09, Final residual = 3.31187e-09, No Iterations 0
 T goes from min(T) [0 0 0 0 0 0 0] 6.26821e-20 to max(T) [0 0 0 0 0 0 0] 0.952794

ExecutionTime = 10.2 s  ClockTime = 167 s

Time = 0.31
Courant Number mean: 0.185498 max: 0.362988
DILUPBiCG:  Solving for T, Initial residual = 0.0067913, Final residual = 1.01538e-11, No Iterations 3
DILUPBiCG:  Solving for T, Initial residual = 3.71173e-05, Final residual = 2.48255e-10, No Iterations 2
DILUPBiCG:  Solving for T, Initial residual = 2.27892e-07, Final residual = 2.62594e-10, No Iterations 1
DILUPBiCG:  Solving for T, Initial residual = 3.40908e-09, Final residual = 3.40908e-09, No Iterations 0
 T goes from min(T) [0 0 0 0 0 0 0] 6.73392e-20 to max(T) [0 0 0 0 0 0 0] 0.952063

ExecutionTime = 10.33 s  ClockTime = 169 s

Time = 0.315
Courant Number mean: 0.185444 max: 0.362836
DILUPBiCG:  Solving for T, Initial residual = 0.00679175, Final residual = 1.0241e-11, No Iterations 3
DILUPBiCG:  Solving for T, Initial residual = 3.72894e-05, Final residual = 2.44584e-10, No Iterations 2
DILUPBiCG:  Solving for T, Initial residual = 2.31621e-07, Final residual = 2.64316e-10, No Iterations 1
DILUPBiCG:  Solving for T, Initial residual = 3.48551e-09, Final residual = 3.48551e-09, No Iterations 0
 T goes from min(T) [0 0 0 0 0 0 0] 6.29298e-20 to max(T) [0 0 0 0 0 0 0] 0.952135

ExecutionTime = 10.46 s  ClockTime = 172 s

Time = 0.32
Courant Number mean: 0.185417 max: 0.362709
DILUPBiCG:  Solving for T, Initial residual = 0.00679274, Final residual = 1.0353e-11, No Iterations 3
DILUPBiCG:  Solving for T, Initial residual = 3.75092e-05, Final residual = 2.40827e-10, No Iterations 2
DILUPBiCG:  Solving for T, Initial residual = 2.35061e-07, Final residual = 2.66244e-10, No Iterations 1
DILUPBiCG:  Solving for T, Initial residual = 3.54163e-09, Final residual = 3.54163e-09, No Iterations 0
 T goes from min(T) [0 0 0 0 0 0 0] 6.03969e-20 to max(T) [0 0 0 0 0 0 0] 0.952556

ExecutionTime = 10.6 s  ClockTime = 174 s

Time = 0.325
Courant Number mean: 0.18538 max: 0.362553
DILUPBiCG:  Solving for T, Initial residual = 0.00679269, Final residual = 1.04892e-11, No Iterations 3
DILUPBiCG:  Solving for T, Initial residual = 3.77552e-05, Final residual = 2.37233e-10, No Iterations 2
DILUPBiCG:  Solving for T, Initial residual = 2.38507e-07, Final residual = 2.68472e-10, No Iterations 1
DILUPBiCG:  Solving for T, Initial residual = 3.59838e-09, Final residual = 3.59838e-09, No Iterations 0
 T goes from min(T) [0 0 0 0 0 0 0] 5.95988e-20 to max(T) [0 0 0 0 0 0 0] 0.951461

ExecutionTime = 10.73 s  ClockTime = 177 s

Time = 0.33
Courant Number mean: 0.185335 max: 0.36237
DILUPBiCG:  Solving for T, Initial residual = 0.00679465, Final residual = 1.06332e-11, No Iterations 3
DILUPBiCG:  Solving for T, Initial residual = 3.79843e-05, Final residual = 2.33543e-10, No Iterations 2
DILUPBiCG:  Solving for T, Initial residual = 2.42254e-07, Final residual = 2.70401e-10, No Iterations 1
DILUPBiCG:  Solving for T, Initial residual = 3.66278e-09, Final residual = 3.66278e-09, No Iterations 0
 T goes from min(T) [0 0 0 0 0 0 0] 6.04392e-20 to max(T) [0 0 0 0 0 0 0] 0.949892

ExecutionTime = 10.86 s  ClockTime = 180 s

Time = 0.335
Courant Number mean: 0.185279 max: 0.362195
DILUPBiCG:  Solving for T, Initial residual = 0.0067987, Final residual = 1.07766e-11, No Iterations 3
DILUPBiCG:  Solving for T, Initial residual = 3.81942e-05, Final residual = 2.2995e-10, No Iterations 2
DILUPBiCG:  Solving for T, Initial residual = 2.46006e-07, Final residual = 2.73244e-10, No Iterations 1
DILUPBiCG:  Solving for T, Initial residual = 3.73999e-09, Final residual = 3.73999e-09, No Iterations 0
 T goes from min(T) [0 0 0 0 0 0 0] 6.28635e-20 to max(T) [0 0 0 0 0 0 0] 0.950086

ExecutionTime = 10.99 s  ClockTime = 182 s

Time = 0.34
Courant Number mean: 0.185211 max: 0.362064
DILUPBiCG:  Solving for T, Initial residual = 0.00680331, Final residual = 1.09165e-11, No Iterations 3
DILUPBiCG:  Solving for T, Initial residual = 3.8423e-05, Final residual = 2.26563e-10, No Iterations 2
DILUPBiCG:  Solving for T, Initial residual = 2.49858e-07, Final residual = 2.75944e-10, No Iterations 1
DILUPBiCG:  Solving for T, Initial residual = 3.83534e-09, Final residual = 3.83534e-09, No Iterations 0
 T goes from min(T) [0 0 0 0 0 0 0] 6.68562e-20 to max(T) [0 0 0 0 0 0 0] 0.951386

ExecutionTime = 11.12 s  ClockTime = 185 s

Time = 0.345
Courant Number mean: 0.185135 max: 0.361905
DILUPBiCG:  Solving for T, Initial residual = 0.00680631, Final residual = 1.10641e-11, No Iterations 3
DILUPBiCG:  Solving for T, Initial residual = 3.86523e-05, Final residual = 2.23424e-10, No Iterations 2
DILUPBiCG:  Solving for T, Initial residual = 2.53849e-07, Final residual = 2.78623e-10, No Iterations 1
DILUPBiCG:  Solving for T, Initial residual = 3.9515e-09, Final residual = 3.9515e-09, No Iterations 0
 T goes from min(T) [0 0 0 0 0 0 0] 7.24394e-20 to max(T) [0 0 0 0 0 0 0] 0.953162

ExecutionTime = 11.25 s  ClockTime = 187 s

Time = 0.35
Courant Number mean: 0.185048 max: 0.361718
DILUPBiCG:  Solving for T, Initial residual = 0.00680627, Final residual = 1.12262e-11, No Iterations 3
DILUPBiCG:  Solving for T, Initial residual = 3.88859e-05, Final residual = 2.20302e-10, No Iterations 2
DILUPBiCG:  Solving for T, Initial residual = 2.57901e-07, Final residual = 2.81704e-10, No Iterations 1
DILUPBiCG:  Solving for T, Initial residual = 4.07704e-09, Final residual = 4.07704e-09, No Iterations 0
 T goes from min(T) [0 0 0 0 0 0 0] 6.86377e-20 to max(T) [0 0 0 0 0 0 0] 0.953522

ExecutionTime = 11.39 s  ClockTime = 190 s

Time = 0.355
Courant Number mean: 0.184964 max: 0.361522
DILUPBiCG:  Solving for T, Initial residual = 0.0068051, Final residual = 1.13933e-11, No Iterations 3
DILUPBiCG:  Solving for T, Initial residual = 3.90922e-05, Final residual = 2.16989e-10, No Iterations 2
DILUPBiCG:  Solving for T, Initial residual = 2.62245e-07, Final residual = 2.85819e-10, No Iterations 1
DILUPBiCG:  Solving for T, Initial residual = 4.18641e-09, Final residual = 4.18641e-09, No Iterations 0
 T goes from min(T) [0 0 0 0 0 0 0] 6.55375e-20 to max(T) [0 0 0 0 0 0 0] 0.952388

ExecutionTime = 11.52 s  ClockTime = 192 s

Time = 0.36
Courant Number mean: 0.184935 max: 0.361383
DILUPBiCG:  Solving for T, Initial residual = 0.00680669, Final residual = 1.15831e-11, No Iterations 3
DILUPBiCG:  Solving for T, Initial residual = 3.93092e-05, Final residual = 2.13031e-10, No Iterations 2
DILUPBiCG:  Solving for T, Initial residual = 2.66315e-07, Final residual = 2.89312e-10, No Iterations 1
DILUPBiCG:  Solving for T, Initial residual = 4.25981e-09, Final residual = 4.25981e-09, No Iterations 0
 T goes from min(T) [0 0 0 0 0 0 0] 6.42798e-20 to max(T) [0 0 0 0 0 0 0] 0.951466

ExecutionTime = 11.66 s  ClockTime = 195 s

Time = 0.365
Courant Number mean: 0.184894 max: 0.361217
DILUPBiCG:  Solving for T, Initial residual = 0.00681069, Final residual = 1.17736e-11, No Iterations 3
DILUPBiCG:  Solving for T, Initial residual = 3.95802e-05, Final residual = 2.09603e-10, No Iterations 2
DILUPBiCG:  Solving for T, Initial residual = 2.7083e-07, Final residual = 2.92568e-10, No Iterations 1
DILUPBiCG:  Solving for T, Initial residual = 4.33736e-09, Final residual = 4.33736e-09, No Iterations 0
 T goes from min(T) [0 0 0 0 0 0 0] -1.00113e-16 to max(T) [0 0 0 0 0 0 0] 0.950344

ExecutionTime = 11.79 s  ClockTime = 197 s

Time = 0.37
Courant Number mean: 0.184845 max: 0.361023
DILUPBiCG:  Solving for T, Initial residual = 0.00681457, Final residual = 1.19802e-11, No Iterations 3
DILUPBiCG:  Solving for T, Initial residual = 3.98677e-05, Final residual = 2.06712e-10, No Iterations 2
DILUPBiCG:  Solving for T, Initial residual = 2.7498e-07, Final residual = 2.9659e-10, No Iterations 1
DILUPBiCG:  Solving for T, Initial residual = 4.41133e-09, Final residual = 4.41133e-09, No Iterations 0
 T goes from min(T) [0 0 0 0 0 0 0] -2.03827e-16 to max(T) [0 0 0 0 0 0 0] 0.949562

ExecutionTime = 11.92 s  ClockTime = 200 s

Time = 0.375
Courant Number mean: 0.184784 max: 0.360802
DILUPBiCG:  Solving for T, Initial residual = 0.00681823, Final residual = 1.21926e-11, No Iterations 3
DILUPBiCG:  Solving for T, Initial residual = 4.01429e-05, Final residual = 2.03842e-10, No Iterations 2
DILUPBiCG:  Solving for T, Initial residual = 2.79455e-07, Final residual = 3.01486e-10, No Iterations 1
DILUPBiCG:  Solving for T, Initial residual = 4.49763e-09, Final residual = 4.49763e-09, No Iterations 0
 T goes from min(T) [0 0 0 0 0 0 0] -3.79162e-16 to max(T) [0 0 0 0 0 0 0] 0.951402

ExecutionTime = 12.06 s  ClockTime = 202 s

Time = 0.38
Courant Number mean: 0.184714 max: 0.36066
DILUPBiCG:  Solving for T, Initial residual = 0.00682439, Final residual = 1.23936e-11, No Iterations 3
DILUPBiCG:  Solving for T, Initial residual = 4.0407e-05, Final residual = 2.01015e-10, No Iterations 2
DILUPBiCG:  Solving for T, Initial residual = 2.8411e-07, Final residual = 3.05971e-10, No Iterations 1
DILUPBiCG:  Solving for T, Initial residual = 4.60587e-09, Final residual = 4.60587e-09, No Iterations 0
 T goes from min(T) [0 0 0 0 0 0 0] -6.55433e-16 to max(T) [0 0 0 0 0 0 0] 0.952543

ExecutionTime = 12.18 s  ClockTime = 205 s

Time = 0.385
Courant Number mean: 0.184635 max: 0.36049
DILUPBiCG:  Solving for T, Initial residual = 0.00682971, Final residual = 1.25796e-11, No Iterations 3
DILUPBiCG:  Solving for T, Initial residual = 4.07111e-05, Final residual = 1.98147e-10, No Iterations 2
DILUPBiCG:  Solving for T, Initial residual = 2.88762e-07, Final residual = 3.10892e-10, No Iterations 1
DILUPBiCG:  Solving for T, Initial residual = 4.73747e-09, Final residual = 4.73747e-09, No Iterations 0
 T goes from min(T) [0 0 0 0 0 0 0] -2.70176e-15 to max(T) [0 0 0 0 0 0 0] 0.952538

ExecutionTime = 12.32 s  ClockTime = 207 s

Time = 0.39
Courant Number mean: 0.184544 max: 0.360293
DILUPBiCG:  Solving for T, Initial residual = 0.00683347, Final residual = 1.27511e-11, No Iterations 3
DILUPBiCG:  Solving for T, Initial residual = 4.09907e-05, Final residual = 1.95366e-10, No Iterations 2
DILUPBiCG:  Solving for T, Initial residual = 2.93376e-07, Final residual = 3.15949e-10, No Iterations 1
DILUPBiCG:  Solving for T, Initial residual = 4.88756e-09, Final residual = 4.88756e-09, No Iterations 0
 T goes from min(T) [0 0 0 0 0 0 0] -5.4148e-15 to max(T) [0 0 0 0 0 0 0] 0.952587

ExecutionTime = 12.45 s  ClockTime = 210 s

Time = 0.395
Courant Number mean: 0.184443 max: 0.360069
DILUPBiCG:  Solving for T, Initial residual = 0.00683529, Final residual = 1.29084e-11, No Iterations 3
DILUPBiCG:  Solving for T, Initial residual = 4.12605e-05, Final residual = 1.9296e-10, No Iterations 2
DILUPBiCG:  Solving for T, Initial residual = 2.97836e-07, Final residual = 3.22137e-10, No Iterations 1
DILUPBiCG:  Solving for T, Initial residual = 5.05565e-09, Final residual = 5.05565e-09, No Iterations 0
 T goes from min(T) [0 0 0 0 0 0 0] -7.25292e-15 to max(T) [0 0 0 0 0 0 0] 0.952205

ExecutionTime = 12.58 s  ClockTime = 212 s

Time = 0.4
Courant Number mean: 0.184397 max: 0.359902
DILUPBiCG:  Solving for T, Initial residual = 0.00683974, Final residual = 1.31134e-11, No Iterations 3
DILUPBiCG:  Solving for T, Initial residual = 4.1505e-05, Final residual = 1.90061e-10, No Iterations 2
DILUPBiCG:  Solving for T, Initial residual = 3.03202e-07, Final residual = 3.28252e-10, No Iterations 1
DILUPBiCG:  Solving for T, Initial residual = 5.16308e-09, Final residual = 5.16308e-09, No Iterations 0
 T goes from min(T) [0 0 0 0 0 0 0] -9.25661e-15 to max(T) [0 0 0 0 0 0 0] 0.95211

ExecutionTime = 12.74 s  ClockTime = 215 s

Time = 0.405
Courant Number mean: 0.184355 max: 0.359725
DILUPBiCG:  Solving for T, Initial residual = 0.00684758, Final residual = 1.33468e-11, No Iterations 3
DILUPBiCG:  Solving for T, Initial residual = 4.17581e-05, Final residual = 1.87294e-10, No Iterations 2
DILUPBiCG:  Solving for T, Initial residual = 3.08756e-07, Final residual = 3.34425e-10, No Iterations 1
DILUPBiCG:  Solving for T, Initial residual = 5.25385e-09, Final residual = 5.25385e-09, No Iterations 0
 T goes from min(T) [0 0 0 0 0 0 0] -1.17708e-14 to max(T) [0 0 0 0 0 0 0] 0.950606

ExecutionTime = 12.89 s  ClockTime = 218 s

Time = 0.41
Courant Number mean: 0.1843 max: 0.359521
DILUPBiCG:  Solving for T, Initial residual = 0.00685599, Final residual = 1.35673e-11, No Iterations 3
DILUPBiCG:  Solving for T, Initial residual = 4.20315e-05, Final residual = 1.84633e-10, No Iterations 2
DILUPBiCG:  Solving for T, Initial residual = 3.14485e-07, Final residual = 3.40942e-10, No Iterations 1
DILUPBiCG:  Solving for T, Initial residual = 5.35055e-09, Final residual = 5.35055e-09, No Iterations 0
 T goes from min(T) [0 0 0 0 0 0 0] -1.43066e-14 to max(T) [0 0 0 0 0 0 0] 0.94873

ExecutionTime = 13.02 s  ClockTime = 221 s

Time = 0.415
Courant Number mean: 0.184236 max: 0.35929
DILUPBiCG:  Solving for T, Initial residual = 0.00686149, Final residual = 1.37697e-11, No Iterations 3
DILUPBiCG:  Solving for T, Initial residual = 4.23549e-05, Final residual = 1.82127e-10, No Iterations 2
DILUPBiCG:  Solving for T, Initial residual = 3.20384e-07, Final residual = 3.48173e-10, No Iterations 1
DILUPBiCG:  Solving for T, Initial residual = 5.46761e-09, Final residual = 5.46761e-09, No Iterations 0
 T goes from min(T) [0 0 0 0 0 0 0] -8.43414e-14 to max(T) [0 0 0 0 0 0 0] 0.95003

ExecutionTime = 13.15 s  ClockTime = 223 s

Time = 0.42
Courant Number mean: 0.184162 max: 0.359101
DILUPBiCG:  Solving for T, Initial residual = 0.00686312, Final residual = 1.40483e-11, No Iterations 3
DILUPBiCG:  Solving for T, Initial residual = 4.26639e-05, Final residual = 1.7995e-10, No Iterations 2
DILUPBiCG:  Solving for T, Initial residual = 3.26238e-07, Final residual = 3.55787e-10, No Iterations 1
DILUPBiCG:  Solving for T, Initial residual = 5.60972e-09, Final residual = 5.60972e-09, No Iterations 0
 T goes from min(T) [0 0 0 0 0 0 0] -1.5674e-13 to max(T) [0 0 0 0 0 0 0] 0.950131

ExecutionTime = 13.28 s  ClockTime = 225 s

Time = 0.425
Courant Number mean: 0.18408 max: 0.358921
DILUPBiCG:  Solving for T, Initial residual = 0.00686811, Final residual = 1.43464e-11, No Iterations 3
DILUPBiCG:  Solving for T, Initial residual = 4.29689e-05, Final residual = 1.77914e-10, No Iterations 2
DILUPBiCG:  Solving for T, Initial residual = 3.32026e-07, Final residual = 3.64168e-10, No Iterations 1
DILUPBiCG:  Solving for T, Initial residual = 5.76973e-09, Final residual = 5.76973e-09, No Iterations 0
 T goes from min(T) [0 0 0 0 0 0 0] -2.30323e-13 to max(T) [0 0 0 0 0 0 0] 0.950927

ExecutionTime = 13.4 s  ClockTime = 228 s

Time = 0.43
Courant Number mean: 0.183986 max: 0.358713
DILUPBiCG:  Solving for T, Initial residual = 0.00687577, Final residual = 1.46877e-11, No Iterations 3
DILUPBiCG:  Solving for T, Initial residual = 4.32756e-05, Final residual = 1.76188e-10, No Iterations 2
DILUPBiCG:  Solving for T, Initial residual = 3.38581e-07, Final residual = 3.73005e-10, No Iterations 1
DILUPBiCG:  Solving for T, Initial residual = 5.96997e-09, Final residual = 5.96997e-09, No Iterations 0
 T goes from min(T) [0 0 0 0 0 0 0] -3.23901e-13 to max(T) [0 0 0 0 0 0 0] 0.952417

ExecutionTime = 13.53 s  ClockTime = 230 s

Time = 0.435
Courant Number mean: 0.183882 max: 0.358478
DILUPBiCG:  Solving for T, Initial residual = 0.00688374, Final residual = 1.51108e-11, No Iterations 3
DILUPBiCG:  Solving for T, Initial residual = 4.36199e-05, Final residual = 1.74453e-10, No Iterations 2
DILUPBiCG:  Solving for T, Initial residual = 3.44862e-07, Final residual = 3.82489e-10, No Iterations 1
DILUPBiCG:  Solving for T, Initial residual = 6.181e-09, Final residual = 6.181e-09, No Iterations 0
 T goes from min(T) [0 0 0 0 0 0 0] -2.76628e-11 to max(T) [0 0 0 0 0 0 0] 0.952554

ExecutionTime = 13.66 s  ClockTime = 233 s

Time = 0.44
Courant Number mean: 0.183807 max: 0.358267
DILUPBiCG:  Solving for T, Initial residual = 0.00689488, Final residual = 1.56683e-11, No Iterations 3
DILUPBiCG:  Solving for T, Initial residual = 4.39432e-05, Final residual = 1.72437e-10, No Iterations 2
DILUPBiCG:  Solving for T, Initial residual = 3.51137e-07, Final residual = 3.91389e-10, No Iterations 1
DILUPBiCG:  Solving for T, Initial residual = 6.35869e-09, Final residual = 6.35869e-09, No Iterations 0
 T goes from min(T) [0 0 0 0 0 0 0] -5.8314e-11 to max(T) [0 0 0 0 0 0 0] 0.951252

ExecutionTime = 13.79 s  ClockTime = 235 s

Time = 0.445
Courant Number mean: 0.18376 max: 0.358079
DILUPBiCG:  Solving for T, Initial residual = 0.0069052, Final residual = 1.63301e-11, No Iterations 3
DILUPBiCG:  Solving for T, Initial residual = 4.42597e-05, Final residual = 1.70406e-10, No Iterations 2
DILUPBiCG:  Solving for T, Initial residual = 3.57253e-07, Final residual = 4.01385e-10, No Iterations 1
DILUPBiCG:  Solving for T, Initial residual = 6.49773e-09, Final residual = 6.49773e-09, No Iterations 0
 T goes from min(T) [0 0 0 0 0 0 0] -3.19725e-10 to max(T) [0 0 0 0 0 0 0] 0.95014

ExecutionTime = 13.92 s  ClockTime = 237 s

Time = 0.45
Courant Number mean: 0.183702 max: 0.357864
DILUPBiCG:  Solving for T, Initial residual = 0.00691637, Final residual = 1.70616e-11, No Iterations 3
DILUPBiCG:  Solving for T, Initial residual = 4.45681e-05, Final residual = 1.68511e-10, No Iterations 2
DILUPBiCG:  Solving for T, Initial residual = 3.63893e-07, Final residual = 4.12629e-10, No Iterations 1
DILUPBiCG:  Solving for T, Initial residual = 6.64968e-09, Final residual = 6.64968e-09, No Iterations 0
 T goes from min(T) [0 0 0 0 0 0 0] -5.53616e-10 to max(T) [0 0 0 0 0 0 0] 0.949486

ExecutionTime = 14.05 s  ClockTime = 240 s

Time = 0.455
Courant Number mean: 0.183635 max: 0.357623
DILUPBiCG:  Solving for T, Initial residual = 0.00692825, Final residual = 1.78592e-11, No Iterations 3
DILUPBiCG:  Solving for T, Initial residual = 4.49026e-05, Final residual = 1.66722e-10, No Iterations 2
DILUPBiCG:  Solving for T, Initial residual = 3.71109e-07, Final residual = 4.24449e-10, No Iterations 1
DILUPBiCG:  Solving for T, Initial residual = 6.79872e-09, Final residual = 6.79872e-09, No Iterations 0
 T goes from min(T) [0 0 0 0 0 0 0] -7.22582e-10 to max(T) [0 0 0 0 0 0 0] 0.948575

ExecutionTime = 14.18 s  ClockTime = 242 s

Time = 0.46
Courant Number mean: 0.183557 max: 0.357389
DILUPBiCG:  Solving for T, Initial residual = 0.00693886, Final residual = 1.8735e-11, No Iterations 3
DILUPBiCG:  Solving for T, Initial residual = 4.52492e-05, Final residual = 1.65052e-10, No Iterations 2
DILUPBiCG:  Solving for T, Initial residual = 3.78601e-07, Final residual = 4.35461e-10, No Iterations 1
DILUPBiCG:  Solving for T, Initial residual = 6.9954e-09, Final residual = 6.9954e-09, No Iterations 0
 T goes from min(T) [0 0 0 0 0 0 0] -1.29498e-09 to max(T) [0 0 0 0 0 0 0] 0.94706

ExecutionTime = 14.31 s  ClockTime = 244 s

Time = 0.465
Courant Number mean: 0.183471 max: 0.357198
DILUPBiCG:  Solving for T, Initial residual = 0.00694745, Final residual = 1.96598e-11, No Iterations 3
DILUPBiCG:  Solving for T, Initial residual = 4.55967e-05, Final residual = 1.63384e-10, No Iterations 2
DILUPBiCG:  Solving for T, Initial residual = 3.85413e-07, Final residual = 4.47252e-10, No Iterations 1
DILUPBiCG:  Solving for T, Initial residual = 7.20786e-09, Final residual = 7.20786e-09, No Iterations 0
 T goes from min(T) [0 0 0 0 0 0 0] -2.19607e-09 to max(T) [0 0 0 0 0 0 0] 0.949827

ExecutionTime = 14.44 s  ClockTime = 246 s

Time = 0.47
Courant Number mean: 0.183374 max: 0.356979
DILUPBiCG:  Solving for T, Initial residual = 0.00695219, Final residual = 2.05677e-11, No Iterations 3
DILUPBiCG:  Solving for T, Initial residual = 4.59472e-05, Final residual = 1.62068e-10, No Iterations 2
DILUPBiCG:  Solving for T, Initial residual = 3.92685e-07, Final residual = 4.62112e-10, No Iterations 1
DILUPBiCG:  Solving for T, Initial residual = 7.45767e-09, Final residual = 7.45767e-09, No Iterations 0
 T goes from min(T) [0 0 0 0 0 0 0] -2.88559e-09 to max(T) [0 0 0 0 0 0 0] 0.951264

ExecutionTime = 14.56 s  ClockTime = 249 s

Time = 0.475
Courant Number mean: 0.183268 max: 0.356734
DILUPBiCG:  Solving for T, Initial residual = 0.00695846, Final residual = 2.14627e-11, No Iterations 3
DILUPBiCG:  Solving for T, Initial residual = 4.62816e-05, Final residual = 1.60956e-10, No Iterations 2
DILUPBiCG:  Solving for T, Initial residual = 4.00633e-07, Final residual = 4.76578e-10, No Iterations 1
DILUPBiCG:  Solving for T, Initial residual = 7.73632e-09, Final residual = 7.73632e-09, No Iterations 0
 T goes from min(T) [0 0 0 0 0 0 0] -3.60766e-09 to max(T) [0 0 0 0 0 0 0] 0.95136

ExecutionTime = 14.7 s  ClockTime = 251 s

Time = 0.48
Courant Number mean: 0.183164 max: 0.356479
DILUPBiCG:  Solving for T, Initial residual = 0.00696851, Final residual = 2.23569e-11, No Iterations 3
DILUPBiCG:  Solving for T, Initial residual = 4.66685e-05, Final residual = 1.59805e-10, No Iterations 2
DILUPBiCG:  Solving for T, Initial residual = 4.08917e-07, Final residual = 4.91171e-10, No Iterations 1
DILUPBiCG:  Solving for T, Initial residual = 8.00963e-09, Final residual = 8.00963e-09, No Iterations 0
 T goes from min(T) [0 0 0 0 0 0 0] -5.18728e-09 to max(T) [0 0 0 0 0 0 0] 0.950107

ExecutionTime = 14.85 s  ClockTime = 253 s

Time = 0.485
Courant Number mean: 0.183113 max: 0.35628
DILUPBiCG:  Solving for T, Initial residual = 0.0069839, Final residual = 2.32984e-11, No Iterations 3
DILUPBiCG:  Solving for T, Initial residual = 4.70781e-05, Final residual = 1.58019e-10, No Iterations 2
DILUPBiCG:  Solving for T, Initial residual = 4.1726e-07, Final residual = 5.05443e-10, No Iterations 1
DILUPBiCG:  Solving for T, Initial residual = 8.20593e-09, Final residual = 8.20593e-09, No Iterations 0
 T goes from min(T) [0 0 0 0 0 0 0] -7.60606e-09 to max(T) [0 0 0 0 0 0 0] 0.950439

ExecutionTime = 14.99 s  ClockTime = 256 s

Time = 0.49
Courant Number mean: 0.183052 max: 0.356055
DILUPBiCG:  Solving for T, Initial residual = 0.00699581, Final residual = 2.42293e-11, No Iterations 3
DILUPBiCG:  Solving for T, Initial residual = 4.7463e-05, Final residual = 1.56032e-10, No Iterations 2
DILUPBiCG:  Solving for T, Initial residual = 4.25953e-07, Final residual = 5.22869e-10, No Iterations 1
DILUPBiCG:  Solving for T, Initial residual = 8.40351e-09, Final residual = 8.40351e-09, No Iterations 0
 T goes from min(T) [0 0 0 0 0 0 0] -9.93881e-09 to max(T) [0 0 0 0 0 0 0] 0.950663

ExecutionTime = 15.13 s  ClockTime = 258 s

Time = 0.495
Courant Number mean: 0.182981 max: 0.355803
DILUPBiCG:  Solving for T, Initial residual = 0.0070083, Final residual = 2.50944e-11, No Iterations 3
DILUPBiCG:  Solving for T, Initial residual = 4.78526e-05, Final residual = 1.54084e-10, No Iterations 2
DILUPBiCG:  Solving for T, Initial residual = 4.34938e-07, Final residual = 5.41647e-10, No Iterations 1
DILUPBiCG:  Solving for T, Initial residual = 8.62713e-09, Final residual = 8.62713e-09, No Iterations 0
 T goes from min(T) [0 0 0 0 0 0 0] -1.2158e-08 to max(T) [0 0 0 0 0 0 0] 0.949481

ExecutionTime = 15.26 s  ClockTime = 260 s

Time = 0.5
Courant Number mean: 0.182901 max: 0.355524
DILUPBiCG:  Solving for T, Initial residual = 0.00702356, Final residual = 2.59036e-11, No Iterations 3
DILUPBiCG:  Solving for T, Initial residual = 4.82361e-05, Final residual = 1.52387e-10, No Iterations 2
DILUPBiCG:  Solving for T, Initial residual = 4.43781e-07, Final residual = 5.59047e-10, No Iterations 1
DILUPBiCG:  Solving for T, Initial residual = 8.86833e-09, Final residual = 8.86833e-09, No Iterations 0
 T goes from min(T) [0 0 0 0 0 0 0] -1.39974e-08 to max(T) [0 0 0 0 0 0 0] 0.946892

ExecutionTime = 15.38 s  ClockTime = 263 s

Time = 0.505
Courant Number mean: 0.18281 max: 0.355322
DILUPBiCG:  Solving for T, Initial residual = 0.00703889, Final residual = 2.66897e-11, No Iterations 3
DILUPBiCG:  Solving for T, Initial residual = 4.85967e-05, Final residual = 1.50461e-10, No Iterations 2
DILUPBiCG:  Solving for T, Initial residual = 4.52596e-07, Final residual = 5.77126e-10, No Iterations 1
DILUPBiCG:  Solving for T, Initial residual = 9.15244e-09, Final residual = 9.15244e-09, No Iterations 0
 T goes from min(T) [0 0 0 0 0 0 0] -1.89894e-08 to max(T) [0 0 0 0 0 0 0] 0.945442

ExecutionTime = 15.5 s  ClockTime = 265 s

Time = 0.51
Courant Number mean: 0.182711 max: 0.355093
DILUPBiCG:  Solving for T, Initial residual = 0.00705208, Final residual = 2.75302e-11, No Iterations 3
DILUPBiCG:  Solving for T, Initial residual = 4.89683e-05, Final residual = 1.48539e-10, No Iterations 2
DILUPBiCG:  Solving for T, Initial residual = 4.61196e-07, Final residual = 5.98607e-10, No Iterations 1
DILUPBiCG:  Solving for T, Initial residual = 9.46281e-09, Final residual = 9.46281e-09, No Iterations 0
 T goes from min(T) [0 0 0 0 0 0 0] -2.62607e-08 to max(T) [0 0 0 0 0 0 0] 0.947358

ExecutionTime = 15.62 s  ClockTime = 267 s

Time = 0.515
Courant Number mean: 0.182601 max: 0.354838
DILUPBiCG:  Solving for T, Initial residual = 0.00706523, Final residual = 2.82933e-11, No Iterations 3
DILUPBiCG:  Solving for T, Initial residual = 4.93658e-05, Final residual = 1.4621e-10, No Iterations 2
DILUPBiCG:  Solving for T, Initial residual = 4.70551e-07, Final residual = 6.2227e-10, No Iterations 1
DILUPBiCG:  Solving for T, Initial residual = 9.81113e-09, Final residual = 9.81113e-09, No Iterations 0
 T goes from min(T) [0 0 0 0 0 0 0] -3.12438e-08 to max(T) [0 0 0 0 0 0 0] 0.948802

ExecutionTime = 15.74 s  ClockTime = 269 s

Time = 0.52
Courant Number mean: 0.182481 max: 0.354555
DILUPBiCG:  Solving for T, Initial residual = 0.0070731, Final residual = 2.89741e-11, No Iterations 3
DILUPBiCG:  Solving for T, Initial residual = 4.97865e-05, Final residual = 1.43595e-10, No Iterations 2
DILUPBiCG:  Solving for T, Initial residual = 4.80522e-07, Final residual = 6.45633e-10, No Iterations 1
DILUPBiCG:  Solving for T, Initial residual = 1.01983e-08, Final residual = 1.76557e-11, No Iterations 1
 T goes from min(T) [0 0 0 0 0 0 0] -3.86194e-08 to max(T) [0 0 0 0 0 0 0] 0.949019

ExecutionTime = 15.86 s  ClockTime = 271 s

Time = 0.525
Courant Number mean: 0.182415 max: 0.35433
DILUPBiCG:  Solving for T, Initial residual = 0.00708364, Final residual = 2.96403e-11, No Iterations 3
DILUPBiCG:  Solving for T, Initial residual = 5.01809e-05, Final residual = 1.3955e-10, No Iterations 2
DILUPBiCG:  Solving for T, Initial residual = 4.90623e-07, Final residual = 6.69193e-10, No Iterations 1
DILUPBiCG:  Solving for T, Initial residual = 1.05134e-08, Final residual = 1.85456e-11, No Iterations 1
 T goes from min(T) [0 0 0 0 0 0 0] -4.33393e-08 to max(T) [0 0 0 0 0 0 0] 0.94872

ExecutionTime = 15.99 s  ClockTime = 273 s

Time = 0.53
Courant Number mean: 0.18235 max: 0.354094
DILUPBiCG:  Solving for T, Initial residual = 0.00709652, Final residual = 3.03411e-11, No Iterations 3
DILUPBiCG:  Solving for T, Initial residual = 5.05516e-05, Final residual = 1.34714e-10, No Iterations 2
DILUPBiCG:  Solving for T, Initial residual = 5.00587e-07, Final residual = 6.94542e-10, No Iterations 1
DILUPBiCG:  Solving for T, Initial residual = 1.07851e-08, Final residual = 1.9432e-11, No Iterations 1
 T goes from min(T) [0 0 0 0 0 0 0] -5.52183e-08 to max(T) [0 0 0 0 0 0 0] 0.950026

ExecutionTime = 16.11 s  ClockTime = 275 s

Time = 0.535
Courant Number mean: 0.182277 max: 0.353831
DILUPBiCG:  Solving for T, Initial residual = 0.00711195, Final residual = 3.1272e-11, No Iterations 3
DILUPBiCG:  Solving for T, Initial residual = 5.09684e-05, Final residual = 1.29316e-10, No Iterations 2
DILUPBiCG:  Solving for T, Initial residual = 5.10732e-07, Final residual = 7.23065e-10, No Iterations 1
DILUPBiCG:  Solving for T, Initial residual = 1.10784e-08, Final residual = 2.04807e-11, No Iterations 1
 T goes from min(T) [0 0 0 0 0 0 0] -7.00348e-08 to max(T) [0 0 0 0 0 0 0] 0.950042

ExecutionTime = 16.23 s  ClockTime = 277 s

Time = 0.54
Courant Number mean: 0.182193 max: 0.353542
DILUPBiCG:  Solving for T, Initial residual = 0.00712614, Final residual = 3.22556e-11, No Iterations 3
DILUPBiCG:  Solving for T, Initial residual = 5.14581e-05, Final residual = 1.23702e-10, No Iterations 2
DILUPBiCG:  Solving for T, Initial residual = 5.22009e-07, Final residual = 7.55273e-10, No Iterations 1
DILUPBiCG:  Solving for T, Initial residual = 1.14232e-08, Final residual = 2.16386e-11, No Iterations 1
 T goes from min(T) [0 0 0 0 0 0 0] -8.53566e-08 to max(T) [0 0 0 0 0 0 0] 0.948766

ExecutionTime = 16.36 s  ClockTime = 279 s

Time = 0.545
Courant Number mean: 0.1821 max: 0.353295
DILUPBiCG:  Solving for T, Initial residual = 0.00713783, Final residual = 3.32905e-11, No Iterations 3
DILUPBiCG:  Solving for T, Initial residual = 5.1914e-05, Final residual = 1.21294e-10, No Iterations 2
DILUPBiCG:  Solving for T, Initial residual = 5.33013e-07, Final residual = 7.85735e-10, No Iterations 1
DILUPBiCG:  Solving for T, Initial residual = 1.17892e-08, Final residual = 2.28745e-11, No Iterations 1
 T goes from min(T) [0 0 0 0 0 0 0] -1.02997e-07 to max(T) [0 0 0 0 0 0 0] 0.946804

ExecutionTime = 16.49 s  ClockTime = 281 s

Time = 0.55
Courant Number mean: 0.181996 max: 0.353056
DILUPBiCG:  Solving for T, Initial residual = 0.0071502, Final residual = 3.44585e-11, No Iterations 3
DILUPBiCG:  Solving for T, Initial residual = 5.23522e-05, Final residual = 1.50913e-10, No Iterations 2
DILUPBiCG:  Solving for T, Initial residual = 5.43815e-07, Final residual = 8.19576e-10, No Iterations 1
DILUPBiCG:  Solving for T, Initial residual = 1.21827e-08, Final residual = 2.43221e-11, No Iterations 1
 T goes from min(T) [0 0 0 0 0 0 0] -1.14692e-07 to max(T) [0 0 0 0 0 0 0] 0.946997

ExecutionTime = 16.62 s  ClockTime = 284 s

Time = 0.555
Courant Number mean: 0.181883 max: 0.35279
DILUPBiCG:  Solving for T, Initial residual = 0.0071656, Final residual = 3.56602e-11, No Iterations 3
DILUPBiCG:  Solving for T, Initial residual = 5.27577e-05, Final residual = 3.49149e-10, No Iterations 2
DILUPBiCG:  Solving for T, Initial residual = 5.55166e-07, Final residual = 8.55855e-10, No Iterations 1
DILUPBiCG:  Solving for T, Initial residual = 1.26113e-08, Final residual = 2.59147e-11, No Iterations 1
 T goes from min(T) [0 0 0 0 0 0 0] -1.32465e-07 to max(T) [0 0 0 0 0 0 0] 0.945841

ExecutionTime = 16.74 s  ClockTime = 286 s

Time = 0.56
Courant Number mean: 0.18176 max: 0.352498
DILUPBiCG:  Solving for T, Initial residual = 0.00718614, Final residual = 3.69048e-11, No Iterations 3
DILUPBiCG:  Solving for T, Initial residual = 5.32751e-05, Final residual = 1.76017e-09, No Iterations 2
DILUPBiCG:  Solving for T, Initial residual = 5.67751e-07, Final residual = 8.96845e-10, No Iterations 1
DILUPBiCG:  Solving for T, Initial residual = 1.3118e-08, Final residual = 2.76924e-11, No Iterations 1
 T goes from min(T) [0 0 0 0 0 0 0] -1.56301e-07 to max(T) [0 0 0 0 0 0 0] 0.943339

ExecutionTime = 16.86 s  ClockTime = 288 s

Time = 0.565
Courant Number mean: 0.181666 max: 0.352228
DILUPBiCG:  Solving for T, Initial residual = 0.00720076, Final residual = 3.83491e-11, No Iterations 3
DILUPBiCG:  Solving for T, Initial residual = 5.37857e-05, Final residual = 1.09401e-09, No Iterations 2
DILUPBiCG:  Solving for T, Initial residual = 5.80338e-07, Final residual = 9.34334e-10, No Iterations 1
DILUPBiCG:  Solving for T, Initial residual = 1.35445e-08, Final residual = 2.93938e-11, No Iterations 1
 T goes from min(T) [0 0 0 0 0 0 0] -1.99738e-07 to max(T) [0 0 0 0 0 0 0] 0.94478

ExecutionTime = 16.99 s  ClockTime = 290 s

Time = 0.57
Courant Number mean: 0.181598 max: 0.351982
DILUPBiCG:  Solving for T, Initial residual = 0.00721133, Final residual = 3.99872e-11, No Iterations 3
DILUPBiCG:  Solving for T, Initial residual = 5.42423e-05, Final residual = 5.48259e-10, No Iterations 2
DILUPBiCG:  Solving for T, Initial residual = 5.91893e-07, Final residual = 9.76582e-10, No Iterations 1
DILUPBiCG:  Solving for T, Initial residual = 1.3911e-08, Final residual = 3.12677e-11, No Iterations 1
 T goes from min(T) [0 0 0 0 0 0 0] -2.38827e-07 to max(T) [0 0 0 0 0 0 0] 0.945626

ExecutionTime = 17.15 s  ClockTime = 293 s

Time = 0.575
Courant Number mean: 0.181522 max: 0.351709
DILUPBiCG:  Solving for T, Initial residual = 0.00722532, Final residual = 4.17465e-11, No Iterations 3
DILUPBiCG:  Solving for T, Initial residual = 5.47229e-05, Final residual = 4.20366e-10, No Iterations 2
DILUPBiCG:  Solving for T, Initial residual = 6.03759e-07, Final residual = 1.02097e-09, No Iterations 1
DILUPBiCG:  Solving for T, Initial residual = 1.42982e-08, Final residual = 3.33265e-11, No Iterations 1
 T goes from min(T) [0 0 0 0 0 0 0] -2.66396e-07 to max(T) [0 0 0 0 0 0 0] 0.94618

ExecutionTime = 17.3 s  ClockTime = 295 s

Time = 0.58
Courant Number mean: 0.181435 max: 0.35141
DILUPBiCG:  Solving for T, Initial residual = 0.00724208, Final residual = 4.36633e-11, No Iterations 3
DILUPBiCG:  Solving for T, Initial residual = 5.52442e-05, Final residual = 3.68973e-10, No Iterations 2
DILUPBiCG:  Solving for T, Initial residual = 6.17192e-07, Final residual = 1.0666e-09, No Iterations 1
DILUPBiCG:  Solving for T, Initial residual = 1.47387e-08, Final residual = 3.56095e-11, No Iterations 1
 T goes from min(T) [0 0 0 0 0 0 0] -3.1668e-07 to max(T) [0 0 0 0 0 0 0] 0.947661

ExecutionTime = 17.44 s  ClockTime = 298 s

Time = 0.585
Courant Number mean: 0.181339 max: 0.351119
DILUPBiCG:  Solving for T, Initial residual = 0.00725696, Final residual = 4.60337e-11, No Iterations 3
DILUPBiCG:  Solving for T, Initial residual = 5.575e-05, Final residual = 3.43791e-10, No Iterations 2
DILUPBiCG:  Solving for T, Initial residual = 6.3147e-07, Final residual = 1.11432e-09, No Iterations 1
DILUPBiCG:  Solving for T, Initial residual = 1.52119e-08, Final residual = 3.79905e-11, No Iterations 1
 T goes from min(T) [0 0 0 0 0 0 0] -3.5092e-07 to max(T) [0 0 0 0 0 0 0] 0.947995

ExecutionTime = 17.59 s  ClockTime = 300 s

Time = 0.59
Courant Number mean: 0.181232 max: 0.350869
DILUPBiCG:  Solving for T, Initial residual = 0.00727303, Final residual = 4.86259e-11, No Iterations 3
DILUPBiCG:  Solving for T, Initial residual = 5.62373e-05, Final residual = 3.31183e-10, No Iterations 2
DILUPBiCG:  Solving for T, Initial residual = 6.45099e-07, Final residual = 1.15869e-09, No Iterations 1
DILUPBiCG:  Solving for T, Initial residual = 1.57111e-08, Final residual = 4.04596e-11, No Iterations 1
 T goes from min(T) [0 0 0 0 0 0 0] -4.06813e-07 to max(T) [0 0 0 0 0 0 0] 0.947184

ExecutionTime = 17.72 s  ClockTime = 302 s

Time = 0.595
Courant Number mean: 0.181117 max: 0.350593
DILUPBiCG:  Solving for T, Initial residual = 0.00729187, Final residual = 5.15373e-11, No Iterations 3
DILUPBiCG:  Solving for T, Initial residual = 5.67415e-05, Final residual = 3.2582e-10, No Iterations 2
DILUPBiCG:  Solving for T, Initial residual = 6.57406e-07, Final residual = 1.20638e-09, No Iterations 1
DILUPBiCG:  Solving for T, Initial residual = 1.62142e-08, Final residual = 4.31321e-11, No Iterations 1
 T goes from min(T) [0 0 0 0 0 0 0] -4.86598e-07 to max(T) [0 0 0 0 0 0 0] 0.946352

ExecutionTime = 17.86 s  ClockTime = 305 s

Time = 0.6
Courant Number mean: 0.18099 max: 0.35029
DILUPBiCG:  Solving for T, Initial residual = 0.0073071, Final residual = 5.5057e-11, No Iterations 3
DILUPBiCG:  Solving for T, Initial residual = 5.726e-05, Final residual = 3.25421e-10, No Iterations 2
DILUPBiCG:  Solving for T, Initial residual = 6.71283e-07, Final residual = 1.25454e-09, No Iterations 1
DILUPBiCG:  Solving for T, Initial residual = 1.6798e-08, Final residual = 4.59014e-11, No Iterations 1
 T goes from min(T) [0 0 0 0 0 0 0] -5.55985e-07 to max(T) [0 0 0 0 0 0 0] 0.946504

ExecutionTime = 17.99 s  ClockTime = 307 s

Time = 0.605
Courant Number mean: 0.180867 max: 0.349978
DILUPBiCG:  Solving for T, Initial residual = 0.00732367, Final residual = 5.92141e-11, No Iterations 3
DILUPBiCG:  Solving for T, Initial residual = 5.77442e-05, Final residual = 3.28463e-10, No Iterations 2
DILUPBiCG:  Solving for T, Initial residual = 6.87395e-07, Final residual = 1.29789e-09, No Iterations 1
DILUPBiCG:  Solving for T, Initial residual = 1.74421e-08, Final residual = 4.85085e-11, No Iterations 1
 T goes from min(T) [0 0 0 0 0 0 0] -6.73176e-07 to max(T) [0 0 0 0 0 0 0] 0.945451

ExecutionTime = 18.12 s  ClockTime = 309 s

Time = 0.61
Courant Number mean: 0.180797 max: 0.349721
DILUPBiCG:  Solving for T, Initial residual = 0.00734277, Final residual = 6.35237e-11, No Iterations 3
DILUPBiCG:  Solving for T, Initial residual = 5.82577e-05, Final residual = 3.34974e-10, No Iterations 2
DILUPBiCG:  Solving for T, Initial residual = 7.02811e-07, Final residual = 1.33489e-09, No Iterations 1
DILUPBiCG:  Solving for T, Initial residual = 1.79716e-08, Final residual = 5.09962e-11, No Iterations 1
 T goes from min(T) [0 0 0 0 0 0 0] -7.5829e-07 to max(T) [0 0 0 0 0 0 0] 0.943199

ExecutionTime = 18.25 s  ClockTime = 311 s

Time = 0.615
Courant Number mean: 0.180719 max: 0.349438
DILUPBiCG:  Solving for T, Initial residual = 0.00735964, Final residual = 6.84649e-11, No Iterations 3
DILUPBiCG:  Solving for T, Initial residual = 5.87992e-05, Final residual = 3.43875e-10, No Iterations 2
DILUPBiCG:  Solving for T, Initial residual = 7.17207e-07, Final residual = 1.38088e-09, No Iterations 1
DILUPBiCG:  Solving for T, Initial residual = 1.84425e-08, Final residual = 5.3036e-11, No Iterations 1
 T goes from min(T) [0 0 0 0 0 0 0] -8.23743e-07 to max(T) [0 0 0 0 0 0 0] 0.941751

ExecutionTime = 18.38 s  ClockTime = 313 s

Time = 0.62
Courant Number mean: 0.180629 max: 0.349129
DILUPBiCG:  Solving for T, Initial residual = 0.00737607, Final residual = 7.434e-11, No Iterations 3
DILUPBiCG:  Solving for T, Initial residual = 5.93442e-05, Final residual = 3.55137e-10, No Iterations 2
DILUPBiCG:  Solving for T, Initial residual = 7.3158e-07, Final residual = 1.44221e-09, No Iterations 1
DILUPBiCG:  Solving for T, Initial residual = 1.88601e-08, Final residual = 5.53317e-11, No Iterations 1
 T goes from min(T) [0 0 0 0 0 0 0] -9.38565e-07 to max(T) [0 0 0 0 0 0 0] 0.940822

ExecutionTime = 18.5 s  ClockTime = 316 s

Time = 0.625
Courant Number mean: 0.18053 max: 0.348794
DILUPBiCG:  Solving for T, Initial residual = 0.00738858, Final residual = 8.08376e-11, No Iterations 3
DILUPBiCG:  Solving for T, Initial residual = 5.99662e-05, Final residual = 3.67938e-10, No Iterations 2
DILUPBiCG:  Solving for T, Initial residual = 7.48398e-07, Final residual = 1.51968e-09, No Iterations 1
DILUPBiCG:  Solving for T, Initial residual = 1.94322e-08, Final residual = 5.81442e-11, No Iterations 1
 T goes from min(T) [0 0 0 0 0 0 0] -1.0276e-06 to max(T) [0 0 0 0 0 0 0] 0.939424

ExecutionTime = 18.62 s  ClockTime = 318 s

Time = 0.63
Courant Number mean: 0.180421 max: 0.348533
DILUPBiCG:  Solving for T, Initial residual = 0.00740477, Final residual = 8.80112e-11, No Iterations 3
DILUPBiCG:  Solving for T, Initial residual = 6.05747e-05, Final residual = 3.81519e-10, No Iterations 2
DILUPBiCG:  Solving for T, Initial residual = 7.66148e-07, Final residual = 1.60262e-09, No Iterations 1
DILUPBiCG:  Solving for T, Initial residual = 2.00755e-08, Final residual = 6.18082e-11, No Iterations 1
 T goes from min(T) [0 0 0 0 0 0 0] -1.27252e-06 to max(T) [0 0 0 0 0 0 0] 0.940761

ExecutionTime = 18.74 s  ClockTime = 320 s

Time = 0.635
Courant Number mean: 0.180302 max: 0.348247
DILUPBiCG:  Solving for T, Initial residual = 0.00742198, Final residual = 9.63507e-11, No Iterations 3
DILUPBiCG:  Solving for T, Initial residual = 6.11089e-05, Final residual = 3.95987e-10, No Iterations 2
DILUPBiCG:  Solving for T, Initial residual = 7.82178e-07, Final residual = 1.69472e-09, No Iterations 1
DILUPBiCG:  Solving for T, Initial residual = 2.07656e-08, Final residual = 6.61547e-11, No Iterations 1
 T goes from min(T) [0 0 0 0 0 0 0] -1.45998e-06 to max(T) [0 0 0 0 0 0 0] 0.942162

ExecutionTime = 18.86 s  ClockTime = 322 s

Time = 0.64
Courant Number mean: 0.180172 max: 0.347934
DILUPBiCG:  Solving for T, Initial residual = 0.00743924, Final residual = 1.05716e-10, No Iterations 3
DILUPBiCG:  Solving for T, Initial residual = 6.1702e-05, Final residual = 4.10677e-10, No Iterations 2
DILUPBiCG:  Solving for T, Initial residual = 7.97145e-07, Final residual = 1.80766e-09, No Iterations 1
DILUPBiCG:  Solving for T, Initial residual = 2.14394e-08, Final residual = 7.08859e-11, No Iterations 1
 T goes from min(T) [0 0 0 0 0 0 0] -1.59418e-06 to max(T) [0 0 0 0 0 0 0] 0.943651

ExecutionTime = 19 s  ClockTime = 324 s

Time = 0.645
Courant Number mean: 0.180034 max: 0.347596
DILUPBiCG:  Solving for T, Initial residual = 0.00745734, Final residual = 1.16129e-10, No Iterations 3
DILUPBiCG:  Solving for T, Initial residual = 6.23735e-05, Final residual = 4.26174e-10, No Iterations 2
DILUPBiCG:  Solving for T, Initial residual = 8.15876e-07, Final residual = 1.93508e-09, No Iterations 1
DILUPBiCG:  Solving for T, Initial residual = 2.2124e-08, Final residual = 7.66729e-11, No Iterations 1
 T goes from min(T) [0 0 0 0 0 0 0] -1.87722e-06 to max(T) [0 0 0 0 0 0 0] 0.94417

ExecutionTime = 19.13 s  ClockTime = 326 s

Time = 0.65
Courant Number mean: 0.179949 max: 0.347313
DILUPBiCG:  Solving for T, Initial residual = 0.00747318, Final residual = 1.27487e-10, No Iterations 3
DILUPBiCG:  Solving for T, Initial residual = 6.30211e-05, Final residual = 4.41334e-10, No Iterations 2
DILUPBiCG:  Solving for T, Initial residual = 8.35048e-07, Final residual = 2.07525e-09, No Iterations 1
DILUPBiCG:  Solving for T, Initial residual = 2.29185e-08, Final residual = 8.24516e-11, No Iterations 1
 T goes from min(T) [0 0 0 0 0 0 0] -2.08461e-06 to max(T) [0 0 0 0 0 0 0] 0.943725

ExecutionTime = 19.25 s  ClockTime = 328 s

Time = 0.655
Courant Number mean: 0.179867 max: 0.347019
DILUPBiCG:  Solving for T, Initial residual = 0.007489, Final residual = 1.4031e-10, No Iterations 3
DILUPBiCG:  Solving for T, Initial residual = 6.35971e-05, Final residual = 4.55236e-10, No Iterations 2
DILUPBiCG:  Solving for T, Initial residual = 8.52441e-07, Final residual = 2.22892e-09, No Iterations 1
[...]

ExecutionTime = 160.25 s  ClockTime = 2009 s

Time = 5.84
Courant Number mean: 0.175445 max: 0.333989
DILUPBiCG:  Solving for T, Initial residual = 0.00805428, Final residual = 1.881e-11, No Iterations 3
DILUPBiCG:  Solving for T, Initial residual = 0.000115592, Final residual = 1.64834e-10, No Iterations 2
DILUPBiCG:  Solving for T, Initial residual = 3.31455e-06, Final residual = 9.24711e-09, No Iterations 1
DILUPBiCG:  Solving for T, Initial residual = 1.51406e-07, Final residual = 1.34432e-09, No Iterations 1
 T goes from min(T) [0 0 0 0 0 0 0] -0.0959671 to max(T) [0 0 0 0 0 0 0] 0.741365

ExecutionTime = 160.38 s  ClockTime = 2010 s

Time = 5.845
Courant Number mean: 0.175297 max: 0.333602
DILUPBiCG:  Solving for T, Initial residual = 0.00808021, Final residual = 1.8896e-11, No Iterations 3
DILUPBiCG:  Solving for T, Initial residual = 0.00011615, Final residual = 1.64442e-10, No Iterations 2
DILUPBiCG:  Solving for T, Initial residual = 3.31574e-06, Final residual = 8.80304e-09, No Iterations 1
DILUPBiCG:  Solving for T, Initial residual = 1.5142e-07, Final residual = 1.25321e-09, No Iterations 1
 T goes from min(T) [0 0 0 0 0 0 0] -0.0952781 to max(T) [0 0 0 0 0 0 0] 0.741003

ExecutionTime = 160.52 s  ClockTime = 2011 s

Time = 5.85
Courant Number mean: 0.175142 max: 0.333191
DILUPBiCG:  Solving for T, Initial residual = 0.00810713, Final residual = 1.89888e-11, No Iterations 3
DILUPBiCG:  Solving for T, Initial residual = 0.000116518, Final residual = 1.63926e-10, No Iterations 2
DILUPBiCG:  Solving for T, Initial residual = 3.326e-06, Final residual = 8.5483e-09, No Iterations 1
DILUPBiCG:  Solving for T, Initial residual = 1.50449e-07, Final residual = 1.12849e-09, No Iterations 1
 T goes from min(T) [0 0 0 0 0 0 0] -0.0948415 to max(T) [0 0 0 0 0 0 0] 0.740637

ExecutionTime = 160.66 s  ClockTime = 2012 s

Time = 5.855
Courant Number mean: 0.17499 max: 0.332772
DILUPBiCG:  Solving for T, Initial residual = 0.00813316, Final residual = 1.91744e-11, No Iterations 3
DILUPBiCG:  Solving for T, Initial residual = 0.000116556, Final residual = 1.63446e-10, No Iterations 2
DILUPBiCG:  Solving for T, Initial residual = 3.3302e-06, Final residual = 8.76755e-09, No Iterations 1
DILUPBiCG:  Solving for T, Initial residual = 1.4944e-07, Final residual = 9.92571e-10, No Iterations 1
 T goes from min(T) [0 0 0 0 0 0 0] -0.0948466 to max(T) [0 0 0 0 0 0 0] 0.740682

ExecutionTime = 160.79 s  ClockTime = 2012 s

Time = 5.86
Courant Number mean: 0.174886 max: 0.332403
DILUPBiCG:  Solving for T, Initial residual = 0.00815627, Final residual = 1.93825e-11, No Iterations 3
DILUPBiCG:  Solving for T, Initial residual = 0.000116729, Final residual = 1.6352e-10, No Iterations 2
DILUPBiCG:  Solving for T, Initial residual = 3.33708e-06, Final residual = 9.2092e-09, No Iterations 1
DILUPBiCG:  Solving for T, Initial residual = 1.48672e-07, Final residual = 8.65996e-10, No Iterations 1
 T goes from min(T) [0 0 0 0 0 0 0] -0.0950086 to max(T) [0 0 0 0 0 0 0] 0.740651

ExecutionTime = 160.93 s  ClockTime = 2013 s

Time = 5.865
Courant Number mean: 0.174772 max: 0.33201
DILUPBiCG:  Solving for T, Initial residual = 0.00817463, Final residual = 1.95852e-11, No Iterations 3
DILUPBiCG:  Solving for T, Initial residual = 0.000117093, Final residual = 1.63652e-10, No Iterations 2
DILUPBiCG:  Solving for T, Initial residual = 3.34474e-06, Final residual = 9.8975e-09, No Iterations 1
DILUPBiCG:  Solving for T, Initial residual = 1.48149e-07, Final residual = 7.27937e-10, No Iterations 1
 T goes from min(T) [0 0 0 0 0 0 0] -0.0952049 to max(T) [0 0 0 0 0 0 0] 0.740543

ExecutionTime = 161.06 s  ClockTime = 2014 s

Time = 5.87
Courant Number mean: 0.17465 max: 0.331593
DILUPBiCG:  Solving for T, Initial residual = 0.00819957, Final residual = 1.98624e-11, No Iterations 3
DILUPBiCG:  Solving for T, Initial residual = 0.000117565, Final residual = 1.63546e-10, No Iterations 2
DILUPBiCG:  Solving for T, Initial residual = 3.34071e-06, Final residual = 5.38798e-12, No Iterations 2
DILUPBiCG:  Solving for T, Initial residual = 1.43607e-07, Final residual = 5.8173e-10, No Iterations 1
 T goes from min(T) [0 0 0 0 0 0 0] -0.0954247 to max(T) [0 0 0 0 0 0 0] 0.740357

ExecutionTime = 161.19 s  ClockTime = 2015 s

Time = 5.875
Courant Number mean: 0.17452 max: 0.331152
DILUPBiCG:  Solving for T, Initial residual = 0.00822511, Final residual = 2.02695e-11, No Iterations 3
DILUPBiCG:  Solving for T, Initial residual = 0.000118123, Final residual = 1.63116e-10, No Iterations 2
DILUPBiCG:  Solving for T, Initial residual = 3.33605e-06, Final residual = 5.11126e-12, No Iterations 2
DILUPBiCG:  Solving for T, Initial residual = 1.43588e-07, Final residual = 4.69728e-10, No Iterations 1
 T goes from min(T) [0 0 0 0 0 0 0] -0.0951912 to max(T) [0 0 0 0 0 0 0] 0.740095

ExecutionTime = 161.33 s  ClockTime = 2016 s

Time = 5.88
Courant Number mean: 0.17438 max: 0.33078
DILUPBiCG:  Solving for T, Initial residual = 0.00825001, Final residual = 2.07032e-11, No Iterations 3
DILUPBiCG:  Solving for T, Initial residual = 0.000118531, Final residual = 1.62585e-10, No Iterations 2
DILUPBiCG:  Solving for T, Initial residual = 3.3447e-06, Final residual = 5.00255e-12, No Iterations 2
DILUPBiCG:  Solving for T, Initial residual = 1.43879e-07, Final residual = 3.84697e-10, No Iterations 1
 T goes from min(T) [0 0 0 0 0 0 0] -0.0944924 to max(T) [0 0 0 0 0 0 0] 0.739754

ExecutionTime = 161.45 s  ClockTime = 2017 s

Time = 5.885
Courant Number mean: 0.174233 max: 0.330383
DILUPBiCG:  Solving for T, Initial residual = 0.00828058, Final residual = 2.10996e-11, No Iterations 3
DILUPBiCG:  Solving for T, Initial residual = 0.000118637, Final residual = 1.618e-10, No Iterations 2
DILUPBiCG:  Solving for T, Initial residual = 3.35505e-06, Final residual = 4.94207e-12, No Iterations 2
DILUPBiCG:  Solving for T, Initial residual = 1.43754e-07, Final residual = 3.96943e-10, No Iterations 1
 T goes from min(T) [0 0 0 0 0 0 0] -0.0945944 to max(T) [0 0 0 0 0 0 0] 0.739334

ExecutionTime = 161.59 s  ClockTime = 2018 s

Time = 5.89
Courant Number mean: 0.174077 max: 0.329963
DILUPBiCG:  Solving for T, Initial residual = 0.00830349, Final residual = 2.15092e-11, No Iterations 3
DILUPBiCG:  Solving for T, Initial residual = 0.000118592, Final residual = 1.6127e-10, No Iterations 2
DILUPBiCG:  Solving for T, Initial residual = 3.35635e-06, Final residual = 4.90022e-12, No Iterations 2
DILUPBiCG:  Solving for T, Initial residual = 1.43749e-07, Final residual = 3.90727e-10, No Iterations 1
 T goes from min(T) [0 0 0 0 0 0 0] -0.0943477 to max(T) [0 0 0 0 0 0 0] 0.738835

ExecutionTime = 161.72 s  ClockTime = 2019 s

Time = 5.895
Courant Number mean: 0.173912 max: 0.329519
DILUPBiCG:  Solving for T, Initial residual = 0.00832059, Final residual = 2.20333e-11, No Iterations 3
DILUPBiCG:  Solving for T, Initial residual = 0.000118956, Final residual = 1.60896e-10, No Iterations 2
DILUPBiCG:  Solving for T, Initial residual = 3.36707e-06, Final residual = 4.8893e-12, No Iterations 2
DILUPBiCG:  Solving for T, Initial residual = 1.43373e-07, Final residual = 3.62828e-10, No Iterations 1
 T goes from min(T) [0 0 0 0 0 0 0] -0.0936134 to max(T) [0 0 0 0 0 0 0] 0.738256

ExecutionTime = 161.85 s  ClockTime = 2020 s

Time = 5.9
Courant Number mean: 0.173795 max: 0.329126
DILUPBiCG:  Solving for T, Initial residual = 0.00834267, Final residual = 2.26582e-11, No Iterations 3
DILUPBiCG:  Solving for T, Initial residual = 0.000119271, Final residual = 1.61065e-10, No Iterations 2
DILUPBiCG:  Solving for T, Initial residual = 3.3689e-06, Final residual = 4.89136e-12, No Iterations 2
DILUPBiCG:  Solving for T, Initial residual = 1.43515e-07, Final residual = 3.53539e-10, No Iterations 1
 T goes from min(T) [0 0 0 0 0 0 0] -0.0941168 to max(T) [0 0 0 0 0 0 0] 0.737595

ExecutionTime = 161.99 s  ClockTime = 2021 s

Time = 5.905
Courant Number mean: 0.17368 max: 0.328723
DILUPBiCG:  Solving for T, Initial residual = 0.00836662, Final residual = 2.34208e-11, No Iterations 3
DILUPBiCG:  Solving for T, Initial residual = 0.000119821, Final residual = 1.61506e-10, No Iterations 2
DILUPBiCG:  Solving for T, Initial residual = 3.36284e-06, Final residual = 4.95823e-12, No Iterations 2
DILUPBiCG:  Solving for T, Initial residual = 1.43328e-07, Final residual = 4.09604e-10, No Iterations 1
 T goes from min(T) [0 0 0 0 0 0 0] -0.0943681 to max(T) [0 0 0 0 0 0 0] 0.736851

ExecutionTime = 162.13 s  ClockTime = 2022 s

Time = 5.91
Courant Number mean: 0.173555 max: 0.328297
DILUPBiCG:  Solving for T, Initial residual = 0.00839034, Final residual = 2.43276e-11, No Iterations 3
DILUPBiCG:  Solving for T, Initial residual = 0.000120403, Final residual = 1.61705e-10, No Iterations 2
DILUPBiCG:  Solving for T, Initial residual = 3.36515e-06, Final residual = 9.53402e-09, No Iterations 1
DILUPBiCG:  Solving for T, Initial residual = 1.45303e-07, Final residual = 4.77179e-10, No Iterations 1
 T goes from min(T) [0 0 0 0 0 0 0] -0.0941632 to max(T) [0 0 0 0 0 0 0] 0.736022

ExecutionTime = 162.26 s  ClockTime = 2023 s

Time = 5.915
Courant Number mean: 0.173423 max: 0.327848
DILUPBiCG:  Solving for T, Initial residual = 0.00842134, Final residual = 2.53907e-11, No Iterations 3
DILUPBiCG:  Solving for T, Initial residual = 0.000120532, Final residual = 1.61688e-10, No Iterations 2
DILUPBiCG:  Solving for T, Initial residual = 3.37425e-06, Final residual = 8.86828e-09, No Iterations 1
DILUPBiCG:  Solving for T, Initial residual = 1.46059e-07, Final residual = 5.64476e-10, No Iterations 1
 T goes from min(T) [0 0 0 0 0 0 0] -0.093721 to max(T) [0 0 0 0 0 0 0] 0.735107

ExecutionTime = 162.39 s  ClockTime = 2024 s

Time = 5.92
Courant Number mean: 0.173283 max: 0.327435
DILUPBiCG:  Solving for T, Initial residual = 0.00844638, Final residual = 2.6538e-11, No Iterations 3
DILUPBiCG:  Solving for T, Initial residual = 0.000120495, Final residual = 1.61706e-10, No Iterations 2
DILUPBiCG:  Solving for T, Initial residual = 3.37309e-06, Final residual = 8.24093e-09, No Iterations 1
DILUPBiCG:  Solving for T, Initial residual = 1.4688e-07, Final residual = 6.5303e-10, No Iterations 1
 T goes from min(T) [0 0 0 0 0 0 0] -0.0940026 to max(T) [0 0 0 0 0 0 0] 0.734982

ExecutionTime = 162.52 s  ClockTime = 2025 s

Time = 5.925
Courant Number mean: 0.173133 max: 0.327029
DILUPBiCG:  Solving for T, Initial residual = 0.00846638, Final residual = 2.78875e-11, No Iterations 3
DILUPBiCG:  Solving for T, Initial residual = 0.000120689, Final residual = 1.6172e-10, No Iterations 2
DILUPBiCG:  Solving for T, Initial residual = 3.37742e-06, Final residual = 7.55402e-09, No Iterations 1
DILUPBiCG:  Solving for T, Initial residual = 1.47362e-07, Final residual = 7.31764e-10, No Iterations 1
 T goes from min(T) [0 0 0 0 0 0 0] -0.0938064 to max(T) [0 0 0 0 0 0 0] 0.735336

ExecutionTime = 162.64 s  ClockTime = 2025 s

Time = 5.93
Courant Number mean: 0.172975 max: 0.3266
DILUPBiCG:  Solving for T, Initial residual = 0.00848574, Final residual = 2.94276e-11, No Iterations 3
DILUPBiCG:  Solving for T, Initial residual = 0.000121067, Final residual = 1.61919e-10, No Iterations 2
DILUPBiCG:  Solving for T, Initial residual = 3.38093e-06, Final residual = 6.79532e-09, No Iterations 1
DILUPBiCG:  Solving for T, Initial residual = 1.48035e-07, Final residual = 7.97254e-10, No Iterations 1
 T goes from min(T) [0 0 0 0 0 0 0] -0.0931189 to max(T) [0 0 0 0 0 0 0] 0.735883

ExecutionTime = 162.77 s  ClockTime = 2026 s

Time = 5.935
Courant Number mean: 0.17281 max: 0.326147
DILUPBiCG:  Solving for T, Initial residual = 0.00850913, Final residual = 3.11554e-11, No Iterations 3
DILUPBiCG:  Solving for T, Initial residual = 0.000121525, Final residual = 1.62292e-10, No Iterations 2
DILUPBiCG:  Solving for T, Initial residual = 3.38179e-06, Final residual = 6.39066e-09, No Iterations 1
DILUPBiCG:  Solving for T, Initial residual = 1.48594e-07, Final residual = 8.36758e-10, No Iterations 1
 T goes from min(T) [0 0 0 0 0 0 0] -0.0927433 to max(T) [0 0 0 0 0 0 0] 0.736409

ExecutionTime = 162.9 s  ClockTime = 2027 s

Time = 5.94
Courant Number mean: 0.172668 max: 0.325715
DILUPBiCG:  Solving for T, Initial residual = 0.00853553, Final residual = 3.30319e-11, No Iterations 3
DILUPBiCG:  Solving for T, Initial residual = 0.000122034, Final residual = 1.62712e-10, No Iterations 2
DILUPBiCG:  Solving for T, Initial residual = 3.38043e-06, Final residual = 6.82618e-09, No Iterations 1
DILUPBiCG:  Solving for T, Initial residual = 1.49006e-07, Final residual = 8.53237e-10, No Iterations 1
 T goes from min(T) [0 0 0 0 0 0 0] -0.0930558 to max(T) [0 0 0 0 0 0 0] 0.736696

ExecutionTime = 163.03 s  ClockTime = 2028 s

Time = 5.945
Courant Number mean: 0.172552 max: 0.325303
DILUPBiCG:  Solving for T, Initial residual = 0.00856371, Final residual = 3.51621e-11, No Iterations 3
DILUPBiCG:  Solving for T, Initial residual = 0.000122253, Final residual = 1.63307e-10, No Iterations 2
DILUPBiCG:  Solving for T, Initial residual = 3.39322e-06, Final residual = 7.18277e-09, No Iterations 1
DILUPBiCG:  Solving for T, Initial residual = 1.49694e-07, Final residual = 8.58831e-10, No Iterations 1
 T goes from min(T) [0 0 0 0 0 0 0] -0.0929113 to max(T) [0 0 0 0 0 0 0] 0.736752

ExecutionTime = 163.17 s  ClockTime = 2029 s

Time = 5.95
Courant Number mean: 0.172428 max: 0.324868
DILUPBiCG:  Solving for T, Initial residual = 0.0085935, Final residual = 3.73522e-11, No Iterations 3
DILUPBiCG:  Solving for T, Initial residual = 0.000122293, Final residual = 1.63879e-10, No Iterations 2
DILUPBiCG:  Solving for T, Initial residual = 3.39788e-06, Final residual = 7.62863e-09, No Iterations 1
DILUPBiCG:  Solving for T, Initial residual = 1.49817e-07, Final residual = 8.3597e-10, No Iterations 1
 T goes from min(T) [0 0 0 0 0 0 0] -0.0927244 to max(T) [0 0 0 0 0 0 0] 0.736589

ExecutionTime = 163.31 s  ClockTime = 2030 s

Time = 5.955
Courant Number mean: 0.172295 max: 0.324409
DILUPBiCG:  Solving for T, Initial residual = 0.00861914, Final residual = 3.95798e-11, No Iterations 3
DILUPBiCG:  Solving for T, Initial residual = 0.00012239, Final residual = 1.64543e-10, No Iterations 2
DILUPBiCG:  Solving for T, Initial residual = 3.39596e-06, Final residual = 7.88055e-09, No Iterations 1
DILUPBiCG:  Solving for T, Initial residual = 1.4944e-07, Final residual = 7.8896e-10, No Iterations 1
 T goes from min(T) [0 0 0 0 0 0 0] -0.0930948 to max(T) [0 0 0 0 0 0 0] 0.736539

ExecutionTime = 163.44 s  ClockTime = 2031 s

Time = 5.96
Courant Number mean: 0.172154 max: 0.323957
DILUPBiCG:  Solving for T, Initial residual = 0.00863998, Final residual = 4.18284e-11, No Iterations 3
DILUPBiCG:  Solving for T, Initial residual = 0.000122683, Final residual = 1.65661e-10, No Iterations 2
DILUPBiCG:  Solving for T, Initial residual = 3.4017e-06, Final residual = 7.91857e-09, No Iterations 1
DILUPBiCG:  Solving for T, Initial residual = 1.49292e-07, Final residual = 7.29908e-10, No Iterations 1
 T goes from min(T) [0 0 0 0 0 0 0] -0.0929853 to max(T) [0 0 0 0 0 0 0] 0.736585

ExecutionTime = 163.57 s  ClockTime = 2032 s

Time = 5.965
Courant Number mean: 0.172004 max: 0.323542
DILUPBiCG:  Solving for T, Initial residual = 0.00866094, Final residual = 4.38543e-11, No Iterations 3
DILUPBiCG:  Solving for T, Initial residual = 0.000123055, Final residual = 1.66457e-10, No Iterations 2
DILUPBiCG:  Solving for T, Initial residual = 3.40588e-06, Final residual = 7.75159e-09, No Iterations 1
DILUPBiCG:  Solving for T, Initial residual = 1.49362e-07, Final residual = 6.70558e-10, No Iterations 1
 T goes from min(T) [0 0 0 0 0 0 0] -0.0923828 to max(T) [0 0 0 0 0 0 0] 0.736387

ExecutionTime = 163.7 s  ClockTime = 2033 s

Time = 5.97
Courant Number mean: 0.171844 max: 0.323104
DILUPBiCG:  Solving for T, Initial residual = 0.00869048, Final residual = 4.5435e-11, No Iterations 3
DILUPBiCG:  Solving for T, Initial residual = 0.000123619, Final residual = 1.66914e-10, No Iterations 2
DILUPBiCG:  Solving for T, Initial residual = 3.39835e-06, Final residual = 7.44826e-09, No Iterations 1
DILUPBiCG:  Solving for T, Initial residual = 1.48827e-07, Final residual = 6.0754e-10, No Iterations 1
 T goes from min(T) [0 0 0 0 0 0 0] -0.0920273 to max(T) [0 0 0 0 0 0 0] 0.735957

ExecutionTime = 163.83 s  ClockTime = 2034 s

Time = 5.975
Courant Number mean: 0.171677 max: 0.322642
DILUPBiCG:  Solving for T, Initial residual = 0.00872095, Final residual = 5.02558e-11, No Iterations 3
DILUPBiCG:  Solving for T, Initial residual = 0.000123959, Final residual = 1.67628e-10, No Iterations 2
DILUPBiCG:  Solving for T, Initial residual = 3.39888e-06, Final residual = 7.079e-09, No Iterations 1
DILUPBiCG:  Solving for T, Initial residual = 1.48809e-07, Final residual = 5.50474e-10, No Iterations 1
 T goes from min(T) [0 0 0 0 0 0 0] -0.0923287 to max(T) [0 0 0 0 0 0 0] 0.735306

ExecutionTime = 163.96 s  ClockTime = 2035 s

Time = 5.98
Courant Number mean: 0.171514 max: 0.322172
DILUPBiCG:  Solving for T, Initial residual = 0.00875126, Final residual = 6.56747e-11, No Iterations 3
DILUPBiCG:  Solving for T, Initial residual = 0.000124094, Final residual = 1.68548e-10, No Iterations 2
DILUPBiCG:  Solving for T, Initial residual = 3.40559e-06, Final residual = 6.59981e-09, No Iterations 1
DILUPBiCG:  Solving for T, Initial residual = 1.48592e-07, Final residual = 4.96717e-10, No Iterations 1
 T goes from min(T) [0 0 0 0 0 0 0] -0.0921269 to max(T) [0 0 0 0 0 0 0] 0.734974

ExecutionTime = 164.09 s  ClockTime = 2036 s

Time = 5.985
Courant Number mean: 0.171397 max: 0.321751
DILUPBiCG:  Solving for T, Initial residual = 0.00877716, Final residual = 9.77923e-11, No Iterations 3
DILUPBiCG:  Solving for T, Initial residual = 0.000124153, Final residual = 1.69468e-10, No Iterations 2
DILUPBiCG:  Solving for T, Initial residual = 3.40604e-06, Final residual = 6.04984e-09, No Iterations 1
DILUPBiCG:  Solving for T, Initial residual = 1.47866e-07, Final residual = 4.44336e-10, No Iterations 1
 T goes from min(T) [0 0 0 0 0 0 0] -0.0914087 to max(T) [0 0 0 0 0 0 0] 0.734572

ExecutionTime = 164.22 s  ClockTime = 2036 s

Time = 5.99
Courant Number mean: 0.171272 max: 0.321306
DILUPBiCG:  Solving for T, Initial residual = 0.00880026, Final residual = 1.94106e-10, No Iterations 3
DILUPBiCG:  Solving for T, Initial residual = 0.000124527, Final residual = 1.6998e-10, No Iterations 2
DILUPBiCG:  Solving for T, Initial residual = 3.40993e-06, Final residual = 5.65931e-09, No Iterations 1
DILUPBiCG:  Solving for T, Initial residual = 1.47149e-07, Final residual = 4.03658e-10, No Iterations 1
 T goes from min(T) [0 0 0 0 0 0 0] -0.0918934 to max(T) [0 0 0 0 0 0 0] 0.733922

ExecutionTime = 164.35 s  ClockTime = 2037 s

Time = 5.995
Courant Number mean: 0.171138 max: 0.320839
DILUPBiCG:  Solving for T, Initial residual = 0.00881614, Final residual = 2.24069e-09, No Iterations 3
DILUPBiCG:  Solving for T, Initial residual = 0.000124713, Final residual = 1.70244e-10, No Iterations 2
DILUPBiCG:  Solving for T, Initial residual = 3.42172e-06, Final residual = 5.30393e-09, No Iterations 1
DILUPBiCG:  Solving for T, Initial residual = 1.46736e-07, Final residual = 3.63078e-10, No Iterations 1
 T goes from min(T) [0 0 0 0 0 0 0] -0.0919033 to max(T) [0 0 0 0 0 0 0] 0.733037

ExecutionTime = 164.48 s  ClockTime = 2038 s

Time = 6
Courant Number mean: 0.170996 max: 0.320349
DILUPBiCG:  Solving for T, Initial residual = 0.00883833, Final residual = 2.93723e-10, No Iterations 3
DILUPBiCG:  Solving for T, Initial residual = 0.000125069, Final residual = 1.70502e-10, No Iterations 2
DILUPBiCG:  Solving for T, Initial residual = 3.42304e-06, Final residual = 5.13057e-09, No Iterations 1
DILUPBiCG:  Solving for T, Initial residual = 1.46109e-07, Final residual = 3.33533e-10, No Iterations 1
 T goes from min(T) [0 0 0 0 0 0 0] -0.0914203 to max(T) [0 0 0 0 0 0 0] 0.73215

ExecutionTime = 164.61 s  ClockTime = 2039 s

End

