/*---------------------------------------------------------------------------*\
| =========                 |                                                 |
| \\      /  F ield         | OpenFOAM: The Open Source CFD Toolbox           |
|  \\    /   O peration     | Version:  dev                                   |
|   \\  /    A nd           | Web:      www.OpenFOAM.org                      |
|    \\/     M anipulation  |                                                 |
\*---------------------------------------------------------------------------*/
Build  : dev-90f39e0d894d
Exec   : scalarDeformationWithGhosts implicit -case nonOrthogW/240x120/c05_implicit
Date   : May 23 2017
Time   : 20:31:03
Host   : "sws02hw.private.rdg.ac.uk"
PID    : 22874
Case   : nonOrthogW/240x120/c05_implicit
nProcs : 1
sigFpe : Enabling floating point exception trapping (FOAM_SIGFPE).
fileModificationChecking : Monitoring run-time modified files using timeStampMaster (fileModificationSkew 10)
allowSystemOperations : Allowing user-supplied system call operations

// * * * * * * * * * * * * * * * * * * * * * * * * * * * * * * * * * * * * * //
Create time

Create mesh for time = 0

Reading field T

Reading fields phi (compulsory), U and Uf (optional)

Calculating owner stencils
Calculating neighbour stencils

Calculating scalar transport

Courant Number mean: 0.232799 max: 0.482541
Time = 0.0025
Courant Number mean: 0.232798 max: 0.482851
DILUPBiCG:  Solving for T, Initial residual = 0.00335793, Final residual = 1.4944e-10, No Iterations 3
DILUPBiCG:  Solving for T, Initial residual = 6.53966e-06, Final residual = 7.98441e-10, No Iterations 2
DILUPBiCG:  Solving for T, Initial residual = 1.21369e-08, Final residual = 5.33781e-11, No Iterations 1
DILUPBiCG:  Solving for T, Initial residual = 3.04858e-10, Final residual = 3.04858e-10, No Iterations 0
 T goes from min(T) [0 0 0 0 0 0 0] 8.08759e-21 to max(T) [0 0 0 0 0 0 0] 0.953908

ExecutionTime = 7.87 s  ClockTime = 46 s

Time = 0.005
Courant Number mean: 0.232796 max: 0.483154
DILUPBiCG:  Solving for T, Initial residual = 0.00335769, Final residual = 2.03317e-10, No Iterations 3
DILUPBiCG:  Solving for T, Initial residual = 6.54498e-06, Final residual = 7.90185e-10, No Iterations 2
DILUPBiCG:  Solving for T, Initial residual = 1.21407e-08, Final residual = 5.31838e-11, No Iterations 1
DILUPBiCG:  Solving for T, Initial residual = 3.02205e-10, Final residual = 3.02205e-10, No Iterations 0
 T goes from min(T) [0 0 0 0 0 0 0] 7.77041e-21 to max(T) [0 0 0 0 0 0 0] 0.953938

ExecutionTime = 8.42 s  ClockTime = 58 s

Time = 0.0075
Courant Number mean: 0.232792 max: 0.483448
DILUPBiCG:  Solving for T, Initial residual = 0.00335748, Final residual = 2.96491e-10, No Iterations 3
DILUPBiCG:  Solving for T, Initial residual = 6.55183e-06, Final residual = 7.78967e-10, No Iterations 2
DILUPBiCG:  Solving for T, Initial residual = 1.21592e-08, Final residual = 5.30542e-11, No Iterations 1
DILUPBiCG:  Solving for T, Initial residual = 3.00955e-10, Final residual = 3.00955e-10, No Iterations 0
 T goes from min(T) [0 0 0 0 0 0 0] 7.57479e-21 to max(T) [0 0 0 0 0 0 0] 0.953699

ExecutionTime = 8.95 s  ClockTime = 69 s

Time = 0.01
Courant Number mean: 0.232787 max: 0.483756
DILUPBiCG:  Solving for T, Initial residual = 0.00335732, Final residual = 4.89232e-10, No Iterations 3
DILUPBiCG:  Solving for T, Initial residual = 6.55883e-06, Final residual = 7.64717e-10, No Iterations 2
DILUPBiCG:  Solving for T, Initial residual = 1.2181e-08, Final residual = 5.294e-11, No Iterations 1
DILUPBiCG:  Solving for T, Initial residual = 3.00852e-10, Final residual = 3.00852e-10, No Iterations 0
 T goes from min(T) [0 0 0 0 0 0 0] 7.49658e-21 to max(T) [0 0 0 0 0 0 0] 0.953257

ExecutionTime = 9.48 s  ClockTime = 81 s

Time = 0.0125
Courant Number mean: 0.232779 max: 0.484112
DILUPBiCG:  Solving for T, Initial residual = 0.00335781, Final residual = 1.09234e-09, No Iterations 3
DILUPBiCG:  Solving for T, Initial residual = 6.56582e-06, Final residual = 7.47085e-10, No Iterations 2
DILUPBiCG:  Solving for T, Initial residual = 1.2207e-08, Final residual = 5.28378e-11, No Iterations 1
DILUPBiCG:  Solving for T, Initial residual = 3.01729e-10, Final residual = 3.01729e-10, No Iterations 0
 T goes from min(T) [0 0 0 0 0 0 0] 7.5318e-21 to max(T) [0 0 0 0 0 0 0] 0.953629

ExecutionTime = 10.01 s  ClockTime = 92 s

Time = 0.015
Courant Number mean: 0.232769 max: 0.484461
DILUPBiCG:  Solving for T, Initial residual = 0.00335811, Final residual = 2.79867e-13, No Iterations 4
DILUPBiCG:  Solving for T, Initial residual = 6.57243e-06, Final residual = 7.30204e-10, No Iterations 2
DILUPBiCG:  Solving for T, Initial residual = 1.22375e-08, Final residual = 5.27362e-11, No Iterations 1
DILUPBiCG:  Solving for T, Initial residual = 3.03148e-10, Final residual = 3.03148e-10, No Iterations 0
 T goes from min(T) [0 0 0 0 0 0 0] 7.67676e-21 to max(T) [0 0 0 0 0 0 0] 0.953917

ExecutionTime = 10.52 s  ClockTime = 103 s

Time = 0.0175
Courant Number mean: 0.232758 max: 0.484801
DILUPBiCG:  Solving for T, Initial residual = 0.00335842, Final residual = 1.22627e-09, No Iterations 3
DILUPBiCG:  Solving for T, Initial residual = 6.5795e-06, Final residual = 7.1127e-10, No Iterations 2
DILUPBiCG:  Solving for T, Initial residual = 1.22738e-08, Final residual = 5.26441e-11, No Iterations 1
DILUPBiCG:  Solving for T, Initial residual = 3.0489e-10, Final residual = 3.0489e-10, No Iterations 0
 T goes from min(T) [0 0 0 0 0 0 0] 7.92805e-21 to max(T) [0 0 0 0 0 0 0] 0.953946

ExecutionTime = 11.03 s  ClockTime = 113 s

Time = 0.02
Courant Number mean: 0.232745 max: 0.485134
DILUPBiCG:  Solving for T, Initial residual = 0.00335888, Final residual = 6.87383e-10, No Iterations 3
DILUPBiCG:  Solving for T, Initial residual = 6.58804e-06, Final residual = 6.87601e-10, No Iterations 2
DILUPBiCG:  Solving for T, Initial residual = 1.23213e-08, Final residual = 5.25786e-11, No Iterations 1
DILUPBiCG:  Solving for T, Initial residual = 3.07348e-10, Final residual = 3.07348e-10, No Iterations 0
 T goes from min(T) [0 0 0 0 0 0 0] 8.28271e-21 to max(T) [0 0 0 0 0 0 0] 0.95372

ExecutionTime = 11.56 s  ClockTime = 124 s

Time = 0.0225
Courant Number mean: 0.232731 max: 0.485458
DILUPBiCG:  Solving for T, Initial residual = 0.00335941, Final residual = 5.08726e-10, No Iterations 3
DILUPBiCG:  Solving for T, Initial residual = 6.59688e-06, Final residual = 6.63139e-10, No Iterations 2
DILUPBiCG:  Solving for T, Initial residual = 1.23837e-08, Final residual = 5.25496e-11, No Iterations 1
DILUPBiCG:  Solving for T, Initial residual = 3.10542e-10, Final residual = 3.10542e-10, No Iterations 0
 T goes from min(T) [0 0 0 0 0 0 0] 8.44638e-21 to max(T) [0 0 0 0 0 0 0] 0.953805

ExecutionTime = 12.13 s  ClockTime = 136 s

Time = 0.025
Courant Number mean: 0.232715 max: 0.485775
DILUPBiCG:  Solving for T, Initial residual = 0.00335963, Final residual = 4.23163e-10, No Iterations 3
DILUPBiCG:  Solving for T, Initial residual = 6.606e-06, Final residual = 6.37748e-10, No Iterations 2
DILUPBiCG:  Solving for T, Initial residual = 1.24577e-08, Final residual = 5.25543e-11, No Iterations 1
DILUPBiCG:  Solving for T, Initial residual = 3.14293e-10, Final residual = 3.14293e-10, No Iterations 0
 T goes from min(T) [0 0 0 0 0 0 0] 8.09716e-21 to max(T) [0 0 0 0 0 0 0] 0.953935

ExecutionTime = 12.65 s  ClockTime = 147 s

Time = 0.0275
Courant Number mean: 0.232697 max: 0.486084
DILUPBiCG:  Solving for T, Initial residual = 0.00336003, Final residual = 3.75908e-10, No Iterations 3
DILUPBiCG:  Solving for T, Initial residual = 6.61548e-06, Final residual = 6.11552e-10, No Iterations 2
DILUPBiCG:  Solving for T, Initial residual = 1.25467e-08, Final residual = 5.26188e-11, No Iterations 1
DILUPBiCG:  Solving for T, Initial residual = 3.18442e-10, Final residual = 3.18442e-10, No Iterations 0
 T goes from min(T) [0 0 0 0 0 0 0] 7.85971e-21 to max(T) [0 0 0 0 0 0 0] 0.953785

ExecutionTime = 13.17 s  ClockTime = 156 s

Time = 0.03
Courant Number mean: 0.232678 max: 0.486384
DILUPBiCG:  Solving for T, Initial residual = 0.00336082, Final residual = 3.48667e-10, No Iterations 3
DILUPBiCG:  Solving for T, Initial residual = 6.62501e-06, Final residual = 5.84817e-10, No Iterations 2
DILUPBiCG:  Solving for T, Initial residual = 1.26529e-08, Final residual = 5.27502e-11, No Iterations 1
DILUPBiCG:  Solving for T, Initial residual = 3.23004e-10, Final residual = 3.23004e-10, No Iterations 0
 T goes from min(T) [0 0 0 0 0 0 0] 7.7321e-21 to max(T) [0 0 0 0 0 0 0] 0.953353

ExecutionTime = 13.74 s  ClockTime = 171 s

Time = 0.0325
Courant Number mean: 0.232656 max: 0.486677
DILUPBiCG:  Solving for T, Initial residual = 0.00336177, Final residual = 3.33786e-10, No Iterations 3
DILUPBiCG:  Solving for T, Initial residual = 6.63462e-06, Final residual = 5.57823e-10, No Iterations 2
DILUPBiCG:  Solving for T, Initial residual = 1.27678e-08, Final residual = 5.29052e-11, No Iterations 1
DILUPBiCG:  Solving for T, Initial residual = 3.27972e-10, Final residual = 3.27972e-10, No Iterations 0
 T goes from min(T) [0 0 0 0 0 0 0] 7.71236e-21 to max(T) [0 0 0 0 0 0 0] 0.953575

ExecutionTime = 14.27 s  ClockTime = 181 s

Time = 0.035
Courant Number mean: 0.232633 max: 0.486961
DILUPBiCG:  Solving for T, Initial residual = 0.00336238, Final residual = 3.27761e-10, No Iterations 3
DILUPBiCG:  Solving for T, Initial residual = 6.64528e-06, Final residual = 5.30827e-10, No Iterations 2
DILUPBiCG:  Solving for T, Initial residual = 1.28918e-08, Final residual = 5.30886e-11, No Iterations 1
DILUPBiCG:  Solving for T, Initial residual = 3.32982e-10, Final residual = 3.32982e-10, No Iterations 0
 T goes from min(T) [0 0 0 0 0 0 0] 7.79861e-21 to max(T) [0 0 0 0 0 0 0] 0.953885

ExecutionTime = 14.78 s  ClockTime = 190 s

Time = 0.0375
Courant Number mean: 0.232608 max: 0.487237
DILUPBiCG:  Solving for T, Initial residual = 0.00336283, Final residual = 3.28996e-10, No Iterations 3
DILUPBiCG:  Solving for T, Initial residual = 6.65606e-06, Final residual = 5.03956e-10, No Iterations 2
DILUPBiCG:  Solving for T, Initial residual = 1.30245e-08, Final residual = 5.32996e-11, No Iterations 1
DILUPBiCG:  Solving for T, Initial residual = 3.38258e-10, Final residual = 3.38258e-10, No Iterations 0
 T goes from min(T) [0 0 0 0 0 0 0] 7.98908e-21 to max(T) [0 0 0 0 0 0 0] 0.953945

ExecutionTime = 15.31 s  ClockTime = 200 s

Time = 0.04
Courant Number mean: 0.232581 max: 0.487506
DILUPBiCG:  Solving for T, Initial residual = 0.00336346, Final residual = 3.37118e-10, No Iterations 3
DILUPBiCG:  Solving for T, Initial residual = 6.6669e-06, Final residual = 4.77424e-10, No Iterations 2
DILUPBiCG:  Solving for T, Initial residual = 1.317e-08, Final residual = 5.35441e-11, No Iterations 1
DILUPBiCG:  Solving for T, Initial residual = 3.43832e-10, Final residual = 3.43832e-10, No Iterations 0
 T goes from min(T) [0 0 0 0 0 0 0] 8.28216e-21 to max(T) [0 0 0 0 0 0 0] 0.953761

ExecutionTime = 15.84 s  ClockTime = 211 s

Time = 0.0425
Courant Number mean: 0.232553 max: 0.487844
DILUPBiCG:  Solving for T, Initial residual = 0.00336451, Final residual = 3.52752e-10, No Iterations 3
DILUPBiCG:  Solving for T, Initial residual = 6.67841e-06, Final residual = 4.51393e-10, No Iterations 2
DILUPBiCG:  Solving for T, Initial residual = 1.33268e-08, Final residual = 5.3823e-11, No Iterations 1
DILUPBiCG:  Solving for T, Initial residual = 3.49767e-10, Final residual = 3.49767e-10, No Iterations 0
 T goes from min(T) [0 0 0 0 0 0 0] 8.6258e-21 to max(T) [0 0 0 0 0 0 0] 0.953582

ExecutionTime = 16.39 s  ClockTime = 221 s

Time = 0.045
Courant Number mean: 0.232523 max: 0.488174
DILUPBiCG:  Solving for T, Initial residual = 0.00336531, Final residual = 3.77752e-10, No Iterations 3
DILUPBiCG:  Solving for T, Initial residual = 6.68963e-06, Final residual = 4.25959e-10, No Iterations 2
DILUPBiCG:  Solving for T, Initial residual = 1.34891e-08, Final residual = 5.41035e-11, No Iterations 1
DILUPBiCG:  Solving for T, Initial residual = 3.56011e-10, Final residual = 3.56011e-10, No Iterations 0
 T goes from min(T) [0 0 0 0 0 0 0] 8.25979e-21 to max(T) [0 0 0 0 0 0 0] 0.953865

ExecutionTime = 16.92 s  ClockTime = 231 s

Time = 0.0475
Courant Number mean: 0.232492 max: 0.488496
DILUPBiCG:  Solving for T, Initial residual = 0.00336595, Final residual = 4.15954e-10, No Iterations 3
DILUPBiCG:  Solving for T, Initial residual = 6.70136e-06, Final residual = 4.01261e-10, No Iterations 2
DILUPBiCG:  Solving for T, Initial residual = 1.3656e-08, Final residual = 5.43938e-11, No Iterations 1
DILUPBiCG:  Solving for T, Initial residual = 3.62561e-10, Final residual = 3.62561e-10, No Iterations 0
 T goes from min(T) [0 0 0 0 0 0 0] 7.99991e-21 to max(T) [0 0 0 0 0 0 0] 0.953861

ExecutionTime = 17.42 s  ClockTime = 240 s

Time = 0.05
Courant Number mean: 0.232459 max: 0.48881
DILUPBiCG:  Solving for T, Initial residual = 0.00336685, Final residual = 4.75052e-10, No Iterations 3
DILUPBiCG:  Solving for T, Initial residual = 6.71372e-06, Final residual = 3.77394e-10, No Iterations 2
DILUPBiCG:  Solving for T, Initial residual = 1.38318e-08, Final residual = 5.47351e-11, No Iterations 1
DILUPBiCG:  Solving for T, Initial residual = 3.69481e-10, Final residual = 3.69481e-10, No Iterations 0
 T goes from min(T) [0 0 0 0 0 0 0] 7.84486e-21 to max(T) [0 0 0 0 0 0 0] 0.953566

ExecutionTime = 17.94 s  ClockTime = 250 s

Time = 0.0525
Courant Number mean: 0.232424 max: 0.489116
DILUPBiCG:  Solving for T, Initial residual = 0.00336787, Final residual = 5.72162e-10, No Iterations 3
DILUPBiCG:  Solving for T, Initial residual = 6.72646e-06, Final residual = 3.54448e-10, No Iterations 2
DILUPBiCG:  Solving for T, Initial residual = 1.40147e-08, Final residual = 5.51074e-11, No Iterations 1
DILUPBiCG:  Solving for T, Initial residual = 3.76812e-10, Final residual = 3.76812e-10, No Iterations 0
 T goes from min(T) [0 0 0 0 0 0 0] 7.7934e-21 to max(T) [0 0 0 0 0 0 0] 0.953515

ExecutionTime = 18.48 s  ClockTime = 259 s

Time = 0.055
Courant Number mean: 0.232387 max: 0.489414
DILUPBiCG:  Solving for T, Initial residual = 0.0033687, Final residual = 7.52407e-10, No Iterations 3
DILUPBiCG:  Solving for T, Initial residual = 6.73936e-06, Final residual = 3.32459e-10, No Iterations 2
DILUPBiCG:  Solving for T, Initial residual = 1.42034e-08, Final residual = 5.55158e-11, No Iterations 1
DILUPBiCG:  Solving for T, Initial residual = 3.84732e-10, Final residual = 3.84732e-10, No Iterations 0
 T goes from min(T) [0 0 0 0 0 0 0] 7.84439e-21 to max(T) [0 0 0 0 0 0 0] 0.95383

ExecutionTime = 19 s  ClockTime = 268 s

Time = 0.0575
Courant Number mean: 0.232349 max: 0.489704
DILUPBiCG:  Solving for T, Initial residual = 0.00336933, Final residual = 1.18479e-09, No Iterations 3
DILUPBiCG:  Solving for T, Initial residual = 6.75249e-06, Final residual = 3.11469e-10, No Iterations 2
DILUPBiCG:  Solving for T, Initial residual = 1.43984e-08, Final residual = 5.59568e-11, No Iterations 1
DILUPBiCG:  Solving for T, Initial residual = 3.93522e-10, Final residual = 3.93522e-10, No Iterations 0
 T goes from min(T) [0 0 0 0 0 0 0] 7.99684e-21 to max(T) [0 0 0 0 0 0 0] 0.953906

ExecutionTime = 19.46 s  ClockTime = 276 s

Time = 0.06
Courant Number mean: 0.232308 max: 0.489985
DILUPBiCG:  Solving for T, Initial residual = 0.00337033, Final residual = 3.49977e-09, No Iterations 3
DILUPBiCG:  Solving for T, Initial residual = 6.76414e-06, Final residual = 2.92026e-10, No Iterations 2
DILUPBiCG:  Solving for T, Initial residual = 1.45943e-08, Final residual = 5.64359e-11, No Iterations 1
DILUPBiCG:  Solving for T, Initial residual = 4.03245e-10, Final residual = 4.03245e-10, No Iterations 0
 T goes from min(T) [0 0 0 0 0 0 0] 8.24991e-21 to max(T) [0 0 0 0 0 0 0] 0.953748

ExecutionTime = 19.96 s  ClockTime = 284 s

Time = 0.0625
Courant Number mean: 0.232266 max: 0.490259
DILUPBiCG:  Solving for T, Initial residual = 0.00337157, Final residual = 2.81673e-09, No Iterations 3
DILUPBiCG:  Solving for T, Initial residual = 6.78165e-06, Final residual = 2.70937e-10, No Iterations 2
DILUPBiCG:  Solving for T, Initial residual = 1.48004e-08, Final residual = 5.69752e-11, No Iterations 1
DILUPBiCG:  Solving for T, Initial residual = 4.1368e-10, Final residual = 4.1368e-10, No Iterations 0
 T goes from min(T) [0 0 0 0 0 0 0] 8.603e-21 to max(T) [0 0 0 0 0 0 0] 0.953361

ExecutionTime = 20.45 s  ClockTime = 292 s

Time = 0.065
Courant Number mean: 0.232223 max: 0.490553
DILUPBiCG:  Solving for T, Initial residual = 0.00337251, Final residual = 9.17219e-10, No Iterations 3
DILUPBiCG:  Solving for T, Initial residual = 6.7947e-06, Final residual = 2.53356e-10, No Iterations 2
DILUPBiCG:  Solving for T, Initial residual = 1.50108e-08, Final residual = 5.75495e-11, No Iterations 1
DILUPBiCG:  Solving for T, Initial residual = 4.25128e-10, Final residual = 4.25128e-10, No Iterations 0
 T goes from min(T) [0 0 0 0 0 0 0] 8.36972e-21 to max(T) [0 0 0 0 0 0 0] 0.953633

ExecutionTime = 21.01 s  ClockTime = 302 s

Time = 0.0675
Courant Number mean: 0.232178 max: 0.490856
DILUPBiCG:  Solving for T, Initial residual = 0.0033732, Final residual = 5.16673e-10, No Iterations 3
DILUPBiCG:  Solving for T, Initial residual = 6.80897e-06, Final residual = 2.3631e-10, No Iterations 2
DILUPBiCG:  Solving for T, Initial residual = 1.52309e-08, Final residual = 5.81728e-11, No Iterations 1
DILUPBiCG:  Solving for T, Initial residual = 4.37501e-10, Final residual = 4.37501e-10, No Iterations 0
 T goes from min(T) [0 0 0 0 0 0 0] 8.08487e-21 to max(T) [0 0 0 0 0 0 0] 0.953846

ExecutionTime = 21.56 s  ClockTime = 311 s

Time = 0.07
Courant Number mean: 0.232131 max: 0.491151
DILUPBiCG:  Solving for T, Initial residual = 0.00337399, Final residual = 3.43588e-10, No Iterations 3
DILUPBiCG:  Solving for T, Initial residual = 6.82372e-06, Final residual = 2.20161e-10, No Iterations 2
DILUPBiCG:  Solving for T, Initial residual = 1.54625e-08, Final residual = 5.88278e-11, No Iterations 1
DILUPBiCG:  Solving for T, Initial residual = 4.50847e-10, Final residual = 4.50847e-10, No Iterations 0
 T goes from min(T) [0 0 0 0 0 0 0] 7.90206e-21 to max(T) [0 0 0 0 0 0 0] 0.953761

ExecutionTime = 22.07 s  ClockTime = 320 s

Time = 0.0725
Courant Number mean: 0.232083 max: 0.491438
DILUPBiCG:  Solving for T, Initial residual = 0.00337537, Final residual = 2.47496e-10, No Iterations 3
DILUPBiCG:  Solving for T, Initial residual = 6.83882e-06, Final residual = 2.04933e-10, No Iterations 2
DILUPBiCG:  Solving for T, Initial residual = 1.57038e-08, Final residual = 5.95184e-11, No Iterations 1
DILUPBiCG:  Solving for T, Initial residual = 4.65187e-10, Final residual = 4.65187e-10, No Iterations 0
 T goes from min(T) [0 0 0 0 0 0 0] 7.82024e-21 to max(T) [0 0 0 0 0 0 0] 0.953372

ExecutionTime = 22.54 s  ClockTime = 328 s

Time = 0.075
Courant Number mean: 0.232033 max: 0.491717
DILUPBiCG:  Solving for T, Initial residual = 0.0033765, Final residual = 1.86631e-10, No Iterations 3
DILUPBiCG:  Solving for T, Initial residual = 6.85442e-06, Final residual = 1.90621e-10, No Iterations 2
DILUPBiCG:  Solving for T, Initial residual = 1.5952e-08, Final residual = 6.02428e-11, No Iterations 1
DILUPBiCG:  Solving for T, Initial residual = 4.80561e-10, Final residual = 4.80561e-10, No Iterations 0
 T goes from min(T) [0 0 0 0 0 0 0] 7.83856e-21 to max(T) [0 0 0 0 0 0 0] 0.95365

ExecutionTime = 23.05 s  ClockTime = 337 s

Time = 0.0775
Courant Number mean: 0.231981 max: 0.491987
DILUPBiCG:  Solving for T, Initial residual = 0.00337738, Final residual = 1.4484e-10, No Iterations 3
DILUPBiCG:  Solving for T, Initial residual = 6.87059e-06, Final residual = 1.77195e-10, No Iterations 2
DILUPBiCG:  Solving for T, Initial residual = 1.62092e-08, Final residual = 6.09995e-11, No Iterations 1
DILUPBiCG:  Solving for T, Initial residual = 4.96835e-10, Final residual = 4.96835e-10, No Iterations 0
 T goes from min(T) [0 0 0 0 0 0 0] 7.95631e-21 to max(T) [0 0 0 0 0 0 0] 0.953806

ExecutionTime = 23.55 s  ClockTime = 345 s

Time = 0.08
Courant Number mean: 0.231927 max: 0.492249
DILUPBiCG:  Solving for T, Initial residual = 0.00337823, Final residual = 1.14809e-10, No Iterations 3
DILUPBiCG:  Solving for T, Initial residual = 6.88666e-06, Final residual = 1.64599e-10, No Iterations 2
DILUPBiCG:  Solving for T, Initial residual = 1.64749e-08, Final residual = 6.17804e-11, No Iterations 1
DILUPBiCG:  Solving for T, Initial residual = 5.13859e-10, Final residual = 5.13859e-10, No Iterations 0
 T goes from min(T) [0 0 0 0 0 0 0] 8.17301e-21 to max(T) [0 0 0 0 0 0 0] 0.95377

ExecutionTime = 24.06 s  ClockTime = 354 s

Time = 0.0825
Courant Number mean: 0.231872 max: 0.492525
DILUPBiCG:  Solving for T, Initial residual = 0.00337942, Final residual = 9.27924e-11, No Iterations 3
DILUPBiCG:  Solving for T, Initial residual = 6.9029e-06, Final residual = 1.52798e-10, No Iterations 2
DILUPBiCG:  Solving for T, Initial residual = 1.67521e-08, Final residual = 6.26041e-11, No Iterations 1
DILUPBiCG:  Solving for T, Initial residual = 5.31904e-10, Final residual = 5.31904e-10, No Iterations 0
 T goes from min(T) [0 0 0 0 0 0 0] 8.48842e-21 to max(T) [0 0 0 0 0 0 0] 0.953425

ExecutionTime = 24.57 s  ClockTime = 362 s

Time = 0.085
Courant Number mean: 0.231814 max: 0.492803
DILUPBiCG:  Solving for T, Initial residual = 0.00338062, Final residual = 7.69328e-11, No Iterations 3
DILUPBiCG:  Solving for T, Initial residual = 6.91944e-06, Final residual = 1.41879e-10, No Iterations 2
DILUPBiCG:  Solving for T, Initial residual = 1.7041e-08, Final residual = 6.34588e-11, No Iterations 1
DILUPBiCG:  Solving for T, Initial residual = 5.50937e-10, Final residual = 5.50937e-10, No Iterations 0
 T goes from min(T) [0 0 0 0 0 0 0] 8.45853e-21 to max(T) [0 0 0 0 0 0 0] 0.953668

ExecutionTime = 25.08 s  ClockTime = 371 s

Time = 0.0875
Courant Number mean: 0.231756 max: 0.493105
DILUPBiCG:  Solving for T, Initial residual = 0.00338158, Final residual = 6.73426e-11, No Iterations 3
DILUPBiCG:  Solving for T, Initial residual = 6.93598e-06, Final residual = 1.31817e-10, No Iterations 2
DILUPBiCG:  Solving for T, Initial residual = 1.73392e-08, Final residual = 6.43399e-11, No Iterations 1
DILUPBiCG:  Solving for T, Initial residual = 5.70872e-10, Final residual = 5.70872e-10, No Iterations 0
 T goes from min(T) [0 0 0 0 0 0 0] 8.14807e-21 to max(T) [0 0 0 0 0 0 0] 0.953817

ExecutionTime = 25.56 s  ClockTime = 379 s

Time = 0.09
Courant Number mean: 0.231696 max: 0.493413
DILUPBiCG:  Solving for T, Initial residual = 0.0033825, Final residual = 6.21508e-11, No Iterations 3
DILUPBiCG:  Solving for T, Initial residual = 6.95333e-06, Final residual = 1.22536e-10, No Iterations 2
DILUPBiCG:  Solving for T, Initial residual = 1.76481e-08, Final residual = 6.52524e-11, No Iterations 1
DILUPBiCG:  Solving for T, Initial residual = 5.91714e-10, Final residual = 5.91714e-10, No Iterations 0
 T goes from min(T) [0 0 0 0 0 0 0] 7.93789e-21 to max(T) [0 0 0 0 0 0 0] 0.953792

ExecutionTime = 26.09 s  ClockTime = 387 s

Time = 0.0925
Courant Number mean: 0.231634 max: 0.493714
DILUPBiCG:  Solving for T, Initial residual = 0.00338372, Final residual = 5.90759e-11, No Iterations 3
DILUPBiCG:  Solving for T, Initial residual = 6.97127e-06, Final residual = 1.13995e-10, No Iterations 2
DILUPBiCG:  Solving for T, Initial residual = 1.79669e-08, Final residual = 6.61932e-11, No Iterations 1
DILUPBiCG:  Solving for T, Initial residual = 6.1353e-10, Final residual = 6.1353e-10, No Iterations 0
 T goes from min(T) [0 0 0 0 0 0 0] 7.82698e-21 to max(T) [0 0 0 0 0 0 0] 0.953698

ExecutionTime = 26.58 s  ClockTime = 395 s

Time = 0.095
Courant Number mean: 0.23157 max: 0.494006
DILUPBiCG:  Solving for T, Initial residual = 0.00338488, Final residual = 5.69368e-11, No Iterations 3
DILUPBiCG:  Solving for T, Initial residual = 6.98929e-06, Final residual = 1.06134e-10, No Iterations 2
DILUPBiCG:  Solving for T, Initial residual = 1.82929e-08, Final residual = 6.71548e-11, No Iterations 1
DILUPBiCG:  Solving for T, Initial residual = 6.36091e-10, Final residual = 6.36091e-10, No Iterations 0
 T goes from min(T) [0 0 0 0 0 0 0] 7.81455e-21 to max(T) [0 0 0 0 0 0 0] 0.95334

ExecutionTime = 27.15 s  ClockTime = 405 s

Time = 0.0975
Courant Number mean: 0.231505 max: 0.49429
DILUPBiCG:  Solving for T, Initial residual = 0.00338593, Final residual = 5.5341e-11, No Iterations 3
DILUPBiCG:  Solving for T, Initial residual = 7.00787e-06, Final residual = 9.89082e-11, No Iterations 2
DILUPBiCG:  Solving for T, Initial residual = 1.86306e-08, Final residual = 6.81419e-11, No Iterations 1
DILUPBiCG:  Solving for T, Initial residual = 6.59357e-10, Final residual = 6.59357e-10, No Iterations 0
 T goes from min(T) [0 0 0 0 0 0 0] 7.90004e-21 to max(T) [0 0 0 0 0 0 0] 0.953556

ExecutionTime = 27.62 s  ClockTime = 413 s

Time = 0.1
Courant Number mean: 0.231437 max: 0.494565
DILUPBiCG:  Solving for T, Initial residual = 0.00338692, Final residual = 5.40766e-11, No Iterations 3
DILUPBiCG:  Solving for T, Initial residual = 7.02695e-06, Final residual = 9.23883e-11, No Iterations 2
DILUPBiCG:  Solving for T, Initial residual = 1.89819e-08, Final residual = 6.91565e-11, No Iterations 1
DILUPBiCG:  Solving for T, Initial residual = 6.83694e-10, Final residual = 6.83694e-10, No Iterations 0
 T goes from min(T) [0 0 0 0 0 0 0] 8.08315e-21 to max(T) [0 0 0 0 0 0 0] 0.953868

ExecutionTime = 28.11 s  ClockTime = 421 s

Time = 0.1025
Courant Number mean: 0.231368 max: 0.494833
DILUPBiCG:  Solving for T, Initial residual = 0.00338799, Final residual = 5.30317e-11, No Iterations 3
DILUPBiCG:  Solving for T, Initial residual = 7.04592e-06, Final residual = 8.65688e-11, No Iterations 2
DILUPBiCG:  Solving for T, Initial residual = 1.93437e-08, Final residual = 7.01931e-11, No Iterations 1
DILUPBiCG:  Solving for T, Initial residual = 7.08883e-10, Final residual = 7.08883e-10, No Iterations 0
 T goes from min(T) [0 0 0 0 0 0 0] 8.36381e-21 to max(T) [0 0 0 0 0 0 0] 0.953866

ExecutionTime = 28.62 s  ClockTime = 430 s

Time = 0.105
Courant Number mean: 0.231298 max: 0.495092
DILUPBiCG:  Solving for T, Initial residual = 0.00338932, Final residual = 5.21464e-11, No Iterations 3
DILUPBiCG:  Solving for T, Initial residual = 7.06542e-06, Final residual = 8.13825e-11, No Iterations 2
DILUPBiCG:  Solving for T, Initial residual = 1.97171e-08, Final residual = 7.1234e-11, No Iterations 1
DILUPBiCG:  Solving for T, Initial residual = 7.34747e-10, Final residual = 7.34747e-10, No Iterations 0
 T goes from min(T) [0 0 0 0 0 0 0] 8.54063e-21 to max(T) [0 0 0 0 0 0 0] 0.953836

ExecutionTime = 29.17 s  ClockTime = 439 s

Time = 0.1075
Courant Number mean: 0.231225 max: 0.495343
DILUPBiCG:  Solving for T, Initial residual = 0.00339047, Final residual = 5.1376e-11, No Iterations 3
DILUPBiCG:  Solving for T, Initial residual = 7.08546e-06, Final residual = 7.67355e-11, No Iterations 2
DILUPBiCG:  Solving for T, Initial residual = 2.00993e-08, Final residual = 7.22707e-11, No Iterations 1
DILUPBiCG:  Solving for T, Initial residual = 7.61701e-10, Final residual = 7.61701e-10, No Iterations 0
 T goes from min(T) [0 0 0 0 0 0 0] 8.2044e-21 to max(T) [0 0 0 0 0 0 0] 0.953993

ExecutionTime = 29.67 s  ClockTime = 448 s

Time = 0.11
Courant Number mean: 0.231152 max: 0.495586
DILUPBiCG:  Solving for T, Initial residual = 0.00339153, Final residual = 5.06836e-11, No Iterations 3
DILUPBiCG:  Solving for T, Initial residual = 7.10584e-06, Final residual = 7.25709e-11, No Iterations 2
DILUPBiCG:  Solving for T, Initial residual = 2.04961e-08, Final residual = 7.33241e-11, No Iterations 1
DILUPBiCG:  Solving for T, Initial residual = 7.89711e-10, Final residual = 7.89711e-10, No Iterations 0
 T goes from min(T) [0 0 0 0 0 0 0] 7.96725e-21 to max(T) [0 0 0 0 0 0 0] 0.953937

ExecutionTime = 30.18 s  ClockTime = 457 s

Time = 0.1125
Courant Number mean: 0.231077 max: 0.49582
DILUPBiCG:  Solving for T, Initial residual = 0.00339263, Final residual = 5.00711e-11, No Iterations 3
DILUPBiCG:  Solving for T, Initial residual = 7.12637e-06, Final residual = 6.88068e-11, No Iterations 2
DILUPBiCG:  Solving for T, Initial residual = 2.09022e-08, Final residual = 7.43909e-11, No Iterations 1
DILUPBiCG:  Solving for T, Initial residual = 8.18698e-10, Final residual = 8.18698e-10, No Iterations 0
 T goes from min(T) [0 0 0 0 0 0 0] 7.82814e-21 to max(T) [0 0 0 0 0 0 0] 0.953704

ExecutionTime = 30.68 s  ClockTime = 465 s

Time = 0.115
Courant Number mean: 0.230999 max: 0.496063
DILUPBiCG:  Solving for T, Initial residual = 0.00339367, Final residual = 4.95132e-11, No Iterations 3
DILUPBiCG:  Solving for T, Initial residual = 7.1466e-06, Final residual = 6.53804e-11, No Iterations 2
DILUPBiCG:  Solving for T, Initial residual = 2.13216e-08, Final residual = 7.54825e-11, No Iterations 1
DILUPBiCG:  Solving for T, Initial residual = 8.48566e-10, Final residual = 8.48566e-10, No Iterations 0
 T goes from min(T) [0 0 0 0 0 0 0] 7.78631e-21 to max(T) [0 0 0 0 0 0 0] 0.953695

ExecutionTime = 31.2 s  ClockTime = 474 s

Time = 0.1175
Courant Number mean: 0.230921 max: 0.49636
DILUPBiCG:  Solving for T, Initial residual = 0.00339503, Final residual = 4.89934e-11, No Iterations 3
DILUPBiCG:  Solving for T, Initial residual = 7.16695e-06, Final residual = 6.22331e-11, No Iterations 2
DILUPBiCG:  Solving for T, Initial residual = 2.17548e-08, Final residual = 7.65972e-11, No Iterations 1
DILUPBiCG:  Solving for T, Initial residual = 8.79277e-10, Final residual = 8.79277e-10, No Iterations 0
 T goes from min(T) [0 0 0 0 0 0 0] 7.84124e-21 to max(T) [0 0 0 0 0 0 0] 0.953362

ExecutionTime = 31.7 s  ClockTime = 482 s

Time = 0.12
Courant Number mean: 0.23084 max: 0.496648
DILUPBiCG:  Solving for T, Initial residual = 0.00339618, Final residual = 4.85109e-11, No Iterations 3
DILUPBiCG:  Solving for T, Initial residual = 7.18796e-06, Final residual = 5.93374e-11, No Iterations 2
DILUPBiCG:  Solving for T, Initial residual = 2.21973e-08, Final residual = 7.77104e-11, No Iterations 1
DILUPBiCG:  Solving for T, Initial residual = 9.11223e-10, Final residual = 9.11223e-10, No Iterations 0
 T goes from min(T) [0 0 0 0 0 0 0] 7.99269e-21 to max(T) [0 0 0 0 0 0 0] 0.953363

ExecutionTime = 32.22 s  ClockTime = 491 s

Time = 0.1225
Courant Number mean: 0.230758 max: 0.496929
DILUPBiCG:  Solving for T, Initial residual = 0.00339753, Final residual = 4.80659e-11, No Iterations 3
DILUPBiCG:  Solving for T, Initial residual = 7.20968e-06, Final residual = 5.66556e-11, No Iterations 2
DILUPBiCG:  Solving for T, Initial residual = 2.26478e-08, Final residual = 7.88289e-11, No Iterations 1
DILUPBiCG:  Solving for T, Initial residual = 9.43923e-10, Final residual = 9.43923e-10, No Iterations 0
 T goes from min(T) [0 0 0 0 0 0 0] 8.24071e-21 to max(T) [0 0 0 0 0 0 0] 0.953826

ExecutionTime = 32.73 s  ClockTime = 500 s

Time = 0.125
Courant Number mean: 0.230674 max: 0.497201
DILUPBiCG:  Solving for T, Initial residual = 0.00339837, Final residual = 4.76454e-11, No Iterations 3
DILUPBiCG:  Solving for T, Initial residual = 7.23156e-06, Final residual = 5.41698e-11, No Iterations 2
DILUPBiCG:  Solving for T, Initial residual = 2.31102e-08, Final residual = 7.99503e-11, No Iterations 1
DILUPBiCG:  Solving for T, Initial residual = 9.77589e-10, Final residual = 9.77589e-10, No Iterations 0
 T goes from min(T) [0 0 0 0 0 0 0] 8.58563e-21 to max(T) [0 0 0 0 0 0 0] 0.953965

ExecutionTime = 33.23 s  ClockTime = 509 s

Time = 0.1275
Courant Number mean: 0.230588 max: 0.497465
DILUPBiCG:  Solving for T, Initial residual = 0.00339947, Final residual = 4.72558e-11, No Iterations 3
DILUPBiCG:  Solving for T, Initial residual = 7.25362e-06, Final residual = 5.1861e-11, No Iterations 2
DILUPBiCG:  Solving for T, Initial residual = 2.35796e-08, Final residual = 8.10613e-11, No Iterations 1
DILUPBiCG:  Solving for T, Initial residual = 1.01238e-09, Final residual = 1.01238e-09, No Iterations 0
 T goes from min(T) [0 0 0 0 0 0 0] 8.2616e-21 to max(T) [0 0 0 0 0 0 0] 0.954082

ExecutionTime = 33.73 s  ClockTime = 517 s

Time = 0.13
Courant Number mean: 0.230501 max: 0.497721
DILUPBiCG:  Solving for T, Initial residual = 0.00340081, Final residual = 4.68904e-11, No Iterations 3
DILUPBiCG:  Solving for T, Initial residual = 7.27589e-06, Final residual = 4.97218e-11, No Iterations 2
DILUPBiCG:  Solving for T, Initial residual = 2.40654e-08, Final residual = 8.21708e-11, No Iterations 1
DILUPBiCG:  Solving for T, Initial residual = 1.04826e-09, Final residual = 1.04826e-09, No Iterations 0
 T goes from min(T) [0 0 0 0 0 0 0] 7.99791e-21 to max(T) [0 0 0 0 0 0 0] 0.954034

ExecutionTime = 34.26 s  ClockTime = 526 s

Time = 0.1325
Courant Number mean: 0.230412 max: 0.497969
DILUPBiCG:  Solving for T, Initial residual = 0.00340225, Final residual = 4.65339e-11, No Iterations 3
DILUPBiCG:  Solving for T, Initial residual = 7.29766e-06, Final residual = 4.77341e-11, No Iterations 2
DILUPBiCG:  Solving for T, Initial residual = 2.45658e-08, Final residual = 8.33029e-11, No Iterations 1
DILUPBiCG:  Solving for T, Initial residual = 1.08497e-09, Final residual = 1.08497e-09, No Iterations 0
 T goes from min(T) [0 0 0 0 0 0 0] 7.83137e-21 to max(T) [0 0 0 0 0 0 0] 0.953788

ExecutionTime = 34.77 s  ClockTime = 535 s

Time = 0.135
Courant Number mean: 0.230322 max: 0.498208
DILUPBiCG:  Solving for T, Initial residual = 0.00340334, Final residual = 4.61909e-11, No Iterations 3
DILUPBiCG:  Solving for T, Initial residual = 7.31924e-06, Final residual = 4.58883e-11, No Iterations 2
DILUPBiCG:  Solving for T, Initial residual = 2.50694e-08, Final residual = 8.44462e-11, No Iterations 1
DILUPBiCG:  Solving for T, Initial residual = 1.12269e-09, Final residual = 1.12269e-09, No Iterations 0
 T goes from min(T) [0 0 0 0 0 0 0] 7.76119e-21 to max(T) [0 0 0 0 0 0 0] 0.95348

ExecutionTime = 35.29 s  ClockTime = 543 s

Time = 0.1375
Courant Number mean: 0.23023 max: 0.498439
DILUPBiCG:  Solving for T, Initial residual = 0.0034042, Final residual = 4.59001e-11, No Iterations 3
DILUPBiCG:  Solving for T, Initial residual = 7.34176e-06, Final residual = 4.41777e-11, No Iterations 2
DILUPBiCG:  Solving for T, Initial residual = 2.55815e-08, Final residual = 8.55768e-11, No Iterations 1
DILUPBiCG:  Solving for T, Initial residual = 1.16123e-09, Final residual = 1.16123e-09, No Iterations 0
 T goes from min(T) [0 0 0 0 0 0 0] 7.78686e-21 to max(T) [0 0 0 0 0 0 0] 0.95368

ExecutionTime = 35.79 s  ClockTime = 552 s

Time = 0.14
Courant Number mean: 0.230136 max: 0.498661
DILUPBiCG:  Solving for T, Initial residual = 0.00340539, Final residual = 4.56698e-11, No Iterations 3
DILUPBiCG:  Solving for T, Initial residual = 7.3654e-06, Final residual = 4.25871e-11, No Iterations 2
DILUPBiCG:  Solving for T, Initial residual = 2.61014e-08, Final residual = 8.67086e-11, No Iterations 1
DILUPBiCG:  Solving for T, Initial residual = 1.20057e-09, Final residual = 1.20057e-09, No Iterations 0
 T goes from min(T) [0 0 0 0 0 0 0] 7.90816e-21 to max(T) [0 0 0 0 0 0 0] 0.953548

ExecutionTime = 36.3 s  ClockTime = 561 s

Time = 0.1425
Courant Number mean: 0.230041 max: 0.498893
DILUPBiCG:  Solving for T, Initial residual = 0.00340688, Final residual = 4.54807e-11, No Iterations 3
DILUPBiCG:  Solving for T, Initial residual = 7.38938e-06, Final residual = 4.11127e-11, No Iterations 2
DILUPBiCG:  Solving for T, Initial residual = 2.66299e-08, Final residual = 8.784e-11, No Iterations 1
DILUPBiCG:  Solving for T, Initial residual = 1.24103e-09, Final residual = 1.24103e-09, No Iterations 0
 T goes from min(T) [0 0 0 0 0 0 0] 8.12518e-21 to max(T) [0 0 0 0 0 0 0] 0.953485

ExecutionTime = 36.8 s  ClockTime = 569 s

Time = 0.145
Courant Number mean: 0.229943 max: 0.499147
DILUPBiCG:  Solving for T, Initial residual = 0.00340817, Final residual = 4.53238e-11, No Iterations 3
DILUPBiCG:  Solving for T, Initial residual = 7.41301e-06, Final residual = 3.97435e-11, No Iterations 2
DILUPBiCG:  Solving for T, Initial residual = 2.71658e-08, Final residual = 8.89725e-11, No Iterations 1
DILUPBiCG:  Solving for T, Initial residual = 1.2822e-09, Final residual = 1.2822e-09, No Iterations 0
 T goes from min(T) [0 0 0 0 0 0 0] 8.43831e-21 to max(T) [0 0 0 0 0 0 0] 0.953834

ExecutionTime = 37.31 s  ClockTime = 578 s

Time = 0.1475
Courant Number mean: 0.229844 max: 0.499392
DILUPBiCG:  Solving for T, Initial residual = 0.00340935, Final residual = 4.5181e-11, No Iterations 3
DILUPBiCG:  Solving for T, Initial residual = 7.43663e-06, Final residual = 3.84713e-11, No Iterations 2
DILUPBiCG:  Solving for T, Initial residual = 2.77128e-08, Final residual = 9.00992e-11, No Iterations 1
DILUPBiCG:  Solving for T, Initial residual = 1.32419e-09, Final residual = 1.32419e-09, No Iterations 0
 T goes from min(T) [0 0 0 0 0 0 0] 8.32169e-21 to max(T) [0 0 0 0 0 0 0] 0.953985

ExecutionTime = 37.84 s  ClockTime = 587 s

Time = 0.15
Courant Number mean: 0.229743 max: 0.499629
DILUPBiCG:  Solving for T, Initial residual = 0.00341029, Final residual = 4.50585e-11, No Iterations 3
DILUPBiCG:  Solving for T, Initial residual = 7.46003e-06, Final residual = 3.72869e-11, No Iterations 2
DILUPBiCG:  Solving for T, Initial residual = 2.82655e-08, Final residual = 9.12117e-11, No Iterations 1
DILUPBiCG:  Solving for T, Initial residual = 1.36747e-09, Final residual = 1.36747e-09, No Iterations 0
 T goes from min(T) [0 0 0 0 0 0 0] 8.03175e-21 to max(T) [0 0 0 0 0 0 0] 0.953996

ExecutionTime = 38.34 s  ClockTime = 595 s

Time = 0.1525
Courant Number mean: 0.229641 max: 0.49988
DILUPBiCG:  Solving for T, Initial residual = 0.00341163, Final residual = 4.49383e-11, No Iterations 3
DILUPBiCG:  Solving for T, Initial residual = 7.48357e-06, Final residual = 3.61847e-11, No Iterations 2
DILUPBiCG:  Solving for T, Initial residual = 2.88266e-08, Final residual = 9.23136e-11, No Iterations 1
DILUPBiCG:  Solving for T, Initial residual = 1.41171e-09, Final residual = 1.41171e-09, No Iterations 0
 T goes from min(T) [0 0 0 0 0 0 0] 7.8383e-21 to max(T) [0 0 0 0 0 0 0] 0.953741

ExecutionTime = 38.85 s  ClockTime = 604 s

Time = 0.155
Courant Number mean: 0.229538 max: 0.500132
DILUPBiCG:  Solving for T, Initial residual = 0.00341297, Final residual = 4.48238e-11, No Iterations 3
DILUPBiCG:  Solving for T, Initial residual = 7.50801e-06, Final residual = 3.51569e-11, No Iterations 2
DILUPBiCG:  Solving for T, Initial residual = 2.94069e-08, Final residual = 9.33927e-11, No Iterations 1
DILUPBiCG:  Solving for T, Initial residual = 1.45631e-09, Final residual = 1.45631e-09, No Iterations 0
 T goes from min(T) [0 0 0 0 0 0 0] 7.74051e-21 to max(T) [0 0 0 0 0 0 0] 0.95346

ExecutionTime = 39.35 s  ClockTime = 613 s

Time = 0.1575
Courant Number mean: 0.229434 max: 0.500375
DILUPBiCG:  Solving for T, Initial residual = 0.00341425, Final residual = 4.47034e-11, No Iterations 3
DILUPBiCG:  Solving for T, Initial residual = 7.5326e-06, Final residual = 3.41979e-11, No Iterations 2
DILUPBiCG:  Solving for T, Initial residual = 2.99919e-08, Final residual = 9.444e-11, No Iterations 1
DILUPBiCG:  Solving for T, Initial residual = 1.50169e-09, Final residual = 1.50169e-09, No Iterations 0
 T goes from min(T) [0 0 0 0 0 0 0] 7.73782e-21 to max(T) [0 0 0 0 0 0 0] 0.953593

ExecutionTime = 39.85 s  ClockTime = 621 s

Time = 0.16
Courant Number mean: 0.229329 max: 0.50061
DILUPBiCG:  Solving for T, Initial residual = 0.00341544, Final residual = 4.45744e-11, No Iterations 3
DILUPBiCG:  Solving for T, Initial residual = 7.55756e-06, Final residual = 3.33039e-11, No Iterations 2
DILUPBiCG:  Solving for T, Initial residual = 3.05833e-08, Final residual = 9.54715e-11, No Iterations 1
DILUPBiCG:  Solving for T, Initial residual = 1.5479e-09, Final residual = 1.5479e-09, No Iterations 0
 T goes from min(T) [0 0 0 0 0 0 0] 7.83002e-21 to max(T) [0 0 0 0 0 0 0] 0.953536

ExecutionTime = 40.35 s  ClockTime = 630 s

Time = 0.1625
Courant Number mean: 0.229223 max: 0.500837
DILUPBiCG:  Solving for T, Initial residual = 0.00341639, Final residual = 4.44385e-11, No Iterations 3
DILUPBiCG:  Solving for T, Initial residual = 7.58228e-06, Final residual = 3.24679e-11, No Iterations 2
DILUPBiCG:  Solving for T, Initial residual = 3.11815e-08, Final residual = 9.64919e-11, No Iterations 1
DILUPBiCG:  Solving for T, Initial residual = 1.59529e-09, Final residual = 1.59529e-09, No Iterations 0
 T goes from min(T) [0 0 0 0 0 0 0] 8.01721e-21 to max(T) [0 0 0 0 0 0 0] 0.953626

ExecutionTime = 40.85 s  ClockTime = 638 s

Time = 0.165
Courant Number mean: 0.229116 max: 0.501069
DILUPBiCG:  Solving for T, Initial residual = 0.00341772, Final residual = 4.42877e-11, No Iterations 3
DILUPBiCG:  Solving for T, Initial residual = 7.60699e-06, Final residual = 3.16884e-11, No Iterations 2
DILUPBiCG:  Solving for T, Initial residual = 3.17807e-08, Final residual = 9.74792e-11, No Iterations 1
DILUPBiCG:  Solving for T, Initial residual = 1.64323e-09, Final residual = 1.64323e-09, No Iterations 0
 T goes from min(T) [0 0 0 0 0 0 0] 8.2998e-21 to max(T) [0 0 0 0 0 0 0] 0.953507

ExecutionTime = 41.36 s  ClockTime = 647 s

Time = 0.1675
Courant Number mean: 0.229007 max: 0.501327
DILUPBiCG:  Solving for T, Initial residual = 0.00341914, Final residual = 4.41301e-11, No Iterations 3
DILUPBiCG:  Solving for T, Initial residual = 7.63249e-06, Final residual = 3.09623e-11, No Iterations 2
DILUPBiCG:  Solving for T, Initial residual = 3.23857e-08, Final residual = 9.84506e-11, No Iterations 1
DILUPBiCG:  Solving for T, Initial residual = 1.69133e-09, Final residual = 1.69133e-09, No Iterations 0
 T goes from min(T) [0 0 0 0 0 0 0] 8.38623e-21 to max(T) [0 0 0 0 0 0 0] 0.95354

ExecutionTime = 41.86 s  ClockTime = 655 s

Time = 0.17
Courant Number mean: 0.228896 max: 0.501577
DILUPBiCG:  Solving for T, Initial residual = 0.00342039, Final residual = 4.39642e-11, No Iterations 3
DILUPBiCG:  Solving for T, Initial residual = 7.65847e-06, Final residual = 3.02846e-11, No Iterations 2
DILUPBiCG:  Solving for T, Initial residual = 3.30045e-08, Final residual = 9.9409e-11, No Iterations 1
DILUPBiCG:  Solving for T, Initial residual = 1.74013e-09, Final residual = 1.74013e-09, No Iterations 0
 T goes from min(T) [0 0 0 0 0 0 0] 8.07026e-21 to max(T) [0 0 0 0 0 0 0] 0.953511

ExecutionTime = 42.43 s  ClockTime = 665 s

Time = 0.1725
Courant Number mean: 0.228784 max: 0.501819
DILUPBiCG:  Solving for T, Initial residual = 0.00342159, Final residual = 4.37865e-11, No Iterations 3
DILUPBiCG:  Solving for T, Initial residual = 7.68475e-06, Final residual = 2.96492e-11, No Iterations 2
DILUPBiCG:  Solving for T, Initial residual = 3.36384e-08, Final residual = 1.00348e-10, No Iterations 1
DILUPBiCG:  Solving for T, Initial residual = 1.7906e-09, Final residual = 1.7906e-09, No Iterations 0
 T goes from min(T) [0 0 0 0 0 0 0] 7.8503e-21 to max(T) [0 0 0 0 0 0 0] 0.953848

ExecutionTime = 42.95 s  ClockTime = 674 s

Time = 0.175
Courant Number mean: 0.228671 max: 0.502052
DILUPBiCG:  Solving for T, Initial residual = 0.00342272, Final residual = 4.3599e-11, No Iterations 3
DILUPBiCG:  Solving for T, Initial residual = 7.71123e-06, Final residual = 2.9061e-11, No Iterations 2
DILUPBiCG:  Solving for T, Initial residual = 3.42798e-08, Final residual = 1.0127e-10, No Iterations 1
DILUPBiCG:  Solving for T, Initial residual = 1.8417e-09, Final residual = 1.8417e-09, No Iterations 0
 T goes from min(T) [0 0 0 0 0 0 0] 7.72544e-21 to max(T) [0 0 0 0 0 0 0] 0.95403

ExecutionTime = 43.46 s  ClockTime = 682 s

Time = 0.1775
Courant Number mean: 0.228557 max: 0.502277
DILUPBiCG:  Solving for T, Initial residual = 0.00342394, Final residual = 4.34078e-11, No Iterations 3
DILUPBiCG:  Solving for T, Initial residual = 7.73737e-06, Final residual = 2.85293e-11, No Iterations 2
DILUPBiCG:  Solving for T, Initial residual = 3.49337e-08, Final residual = 1.0216e-10, No Iterations 1
DILUPBiCG:  Solving for T, Initial residual = 1.89278e-09, Final residual = 1.89278e-09, No Iterations 0
 T goes from min(T) [0 0 0 0 0 0 0] 7.69508e-21 to max(T) [0 0 0 0 0 0 0] 0.954045

ExecutionTime = 43.96 s  ClockTime = 691 s

Time = 0.18
Courant Number mean: 0.228443 max: 0.502494
DILUPBiCG:  Solving for T, Initial residual = 0.00342529, Final residual = 4.32143e-11, No Iterations 3
DILUPBiCG:  Solving for T, Initial residual = 7.76343e-06, Final residual = 2.80346e-11, No Iterations 2
DILUPBiCG:  Solving for T, Initial residual = 3.55988e-08, Final residual = 1.03068e-10, No Iterations 1
DILUPBiCG:  Solving for T, Initial residual = 1.94414e-09, Final residual = 1.94414e-09, No Iterations 0
 T goes from min(T) [0 0 0 0 0 0 0] 7.75899e-21 to max(T) [0 0 0 0 0 0 0] 0.954002

ExecutionTime = 44.51 s  ClockTime = 700 s

Time = 0.1825
Courant Number mean: 0.228327 max: 0.502702
DILUPBiCG:  Solving for T, Initial residual = 0.00342673, Final residual = 4.30178e-11, No Iterations 3
DILUPBiCG:  Solving for T, Initial residual = 7.79044e-06, Final residual = 2.75743e-11, No Iterations 2
DILUPBiCG:  Solving for T, Initial residual = 3.62593e-08, Final residual = 1.03935e-10, No Iterations 1
DILUPBiCG:  Solving for T, Initial residual = 1.99613e-09, Final residual = 1.99613e-09, No Iterations 0
 T goes from min(T) [0 0 0 0 0 0 0] 7.91724e-21 to max(T) [0 0 0 0 0 0 0] 0.953783

ExecutionTime = 45.03 s  ClockTime = 709 s

Time = 0.185
Courant Number mean: 0.228211 max: 0.502902
DILUPBiCG:  Solving for T, Initial residual = 0.00342813, Final residual = 4.28144e-11, No Iterations 3
DILUPBiCG:  Solving for T, Initial residual = 7.8185e-06, Final residual = 2.71414e-11, No Iterations 2
DILUPBiCG:  Solving for T, Initial residual = 3.69238e-08, Final residual = 1.04812e-10, No Iterations 1
DILUPBiCG:  Solving for T, Initial residual = 2.04918e-09, Final residual = 2.04918e-09, No Iterations 0
 T goes from min(T) [0 0 0 0 0 0 0] 8.17024e-21 to max(T) [0 0 0 0 0 0 0] 0.953392

ExecutionTime = 45.56 s  ClockTime = 718 s

Time = 0.1875
Courant Number mean: 0.228092 max: 0.503094
DILUPBiCG:  Solving for T, Initial residual = 0.0034292, Final residual = 4.26045e-11, No Iterations 3
DILUPBiCG:  Solving for T, Initial residual = 7.84661e-06, Final residual = 2.67378e-11, No Iterations 2
DILUPBiCG:  Solving for T, Initial residual = 3.7596e-08, Final residual = 1.05669e-10, No Iterations 1
DILUPBiCG:  Solving for T, Initial residual = 2.10332e-09, Final residual = 2.10332e-09, No Iterations 0
 T goes from min(T) [0 0 0 0 0 0 0] 8.4561e-21 to max(T) [0 0 0 0 0 0 0] 0.953505

ExecutionTime = 46.08 s  ClockTime = 727 s

Time = 0.19
Courant Number mean: 0.227973 max: 0.503284
DILUPBiCG:  Solving for T, Initial residual = 0.00343019, Final residual = 4.23877e-11, No Iterations 3
DILUPBiCG:  Solving for T, Initial residual = 7.87445e-06, Final residual = 2.63641e-11, No Iterations 2
DILUPBiCG:  Solving for T, Initial residual = 3.8266e-08, Final residual = 1.06487e-10, No Iterations 1
DILUPBiCG:  Solving for T, Initial residual = 2.15697e-09, Final residual = 2.15697e-09, No Iterations 0
 T goes from min(T) [0 0 0 0 0 0 0] 8.11429e-21 to max(T) [0 0 0 0 0 0 0] 0.953572

ExecutionTime = 46.57 s  ClockTime = 735 s

Time = 0.1925
Courant Number mean: 0.227852 max: 0.503538
DILUPBiCG:  Solving for T, Initial residual = 0.00343167, Final residual = 4.21741e-11, No Iterations 3
DILUPBiCG:  Solving for T, Initial residual = 7.90216e-06, Final residual = 2.60157e-11, No Iterations 2
DILUPBiCG:  Solving for T, Initial residual = 3.89494e-08, Final residual = 1.07322e-10, No Iterations 1
DILUPBiCG:  Solving for T, Initial residual = 2.21047e-09, Final residual = 2.21047e-09, No Iterations 0
 T goes from min(T) [0 0 0 0 0 0 0] 7.86813e-21 to max(T) [0 0 0 0 0 0 0] 0.95356

ExecutionTime = 47.09 s  ClockTime = 744 s

Time = 0.195
Courant Number mean: 0.22773 max: 0.503784
DILUPBiCG:  Solving for T, Initial residual = 0.00343315, Final residual = 4.19669e-11, No Iterations 3
DILUPBiCG:  Solving for T, Initial residual = 7.92994e-06, Final residual = 2.56933e-11, No Iterations 2
DILUPBiCG:  Solving for T, Initial residual = 3.96496e-08, Final residual = 1.08134e-10, No Iterations 1
DILUPBiCG:  Solving for T, Initial residual = 2.26511e-09, Final residual = 2.26511e-09, No Iterations 0
 T goes from min(T) [0 0 0 0 0 0 0] 7.71664e-21 to max(T) [0 0 0 0 0 0 0] 0.953894

ExecutionTime = 47.61 s  ClockTime = 753 s

Time = 0.1975
Courant Number mean: 0.227607 max: 0.504022
DILUPBiCG:  Solving for T, Initial residual = 0.00343445, Final residual = 4.1759e-11, No Iterations 3
DILUPBiCG:  Solving for T, Initial residual = 7.95828e-06, Final residual = 2.54047e-11, No Iterations 2
DILUPBiCG:  Solving for T, Initial residual = 4.03452e-08, Final residual = 1.08979e-10, No Iterations 1
DILUPBiCG:  Solving for T, Initial residual = 2.32126e-09, Final residual = 2.32126e-09, No Iterations 0
 T goes from min(T) [0 0 0 0 0 0 0] 7.65917e-21 to max(T) [0 0 0 0 0 0 0] 0.954053

ExecutionTime = 48.12 s  ClockTime = 761 s

Time = 0.2
Courant Number mean: 0.227484 max: 0.504251
DILUPBiCG:  Solving for T, Initial residual = 0.00343557, Final residual = 4.15581e-11, No Iterations 3
DILUPBiCG:  Solving for T, Initial residual = 7.98761e-06, Final residual = 2.51415e-11, No Iterations 2
DILUPBiCG:  Solving for T, Initial residual = 4.10454e-08, Final residual = 1.09881e-10, No Iterations 1
DILUPBiCG:  Solving for T, Initial residual = 2.37722e-09, Final residual = 2.37722e-09, No Iterations 0
 T goes from min(T) [0 0 0 0 0 0 0] 7.69542e-21 to max(T) [0 0 0 0 0 0 0] 0.95404

ExecutionTime = 48.62 s  ClockTime = 769 s

Time = 0.2025
Courant Number mean: 0.22736 max: 0.504472
DILUPBiCG:  Solving for T, Initial residual = 0.00343674, Final residual = 4.13614e-11, No Iterations 3
DILUPBiCG:  Solving for T, Initial residual = 8.01725e-06, Final residual = 2.49003e-11, No Iterations 2
DILUPBiCG:  Solving for T, Initial residual = 4.17574e-08, Final residual = 1.10791e-10, No Iterations 1
DILUPBiCG:  Solving for T, Initial residual = 2.43262e-09, Final residual = 2.43262e-09, No Iterations 0
 T goes from min(T) [0 0 0 0 0 0 0] 7.82544e-21 to max(T) [0 0 0 0 0 0 0] 0.954034

ExecutionTime = 49.12 s  ClockTime = 777 s

Time = 0.205
Courant Number mean: 0.227235 max: 0.504684
DILUPBiCG:  Solving for T, Initial residual = 0.00343809, Final residual = 4.11712e-11, No Iterations 3
DILUPBiCG:  Solving for T, Initial residual = 8.04595e-06, Final residual = 2.46784e-11, No Iterations 2
DILUPBiCG:  Solving for T, Initial residual = 4.24839e-08, Final residual = 1.11792e-10, No Iterations 1
DILUPBiCG:  Solving for T, Initial residual = 2.4873e-09, Final residual = 2.4873e-09, No Iterations 0
 T goes from min(T) [0 0 0 0 0 0 0] 8.04963e-21 to max(T) [0 0 0 0 0 0 0] 0.953798

ExecutionTime = 49.63 s  ClockTime = 785 s

Time = 0.2075
Courant Number mean: 0.227109 max: 0.504888
DILUPBiCG:  Solving for T, Initial residual = 0.00343955, Final residual = 4.09844e-11, No Iterations 3
DILUPBiCG:  Solving for T, Initial residual = 8.07514e-06, Final residual = 2.44842e-11, No Iterations 2
DILUPBiCG:  Solving for T, Initial residual = 4.32081e-08, Final residual = 1.12755e-10, No Iterations 1
DILUPBiCG:  Solving for T, Initial residual = 2.54222e-09, Final residual = 2.54222e-09, No Iterations 0
 T goes from min(T) [0 0 0 0 0 0 0] 8.36874e-21 to max(T) [0 0 0 0 0 0 0] 0.953637

ExecutionTime = 50.14 s  ClockTime = 792 s

Time = 0.21
Courant Number mean: 0.226982 max: 0.505084
DILUPBiCG:  Solving for T, Initial residual = 0.00344083, Final residual = 4.08124e-11, No Iterations 3
DILUPBiCG:  Solving for T, Initial residual = 8.10479e-06, Final residual = 2.43088e-11, No Iterations 2
DILUPBiCG:  Solving for T, Initial residual = 4.39218e-08, Final residual = 1.13677e-10, No Iterations 1
DILUPBiCG:  Solving for T, Initial residual = 2.59903e-09, Final residual = 2.59903e-09, No Iterations 0
 T goes from min(T) [0 0 0 0 0 0 0] 8.16489e-21 to max(T) [0 0 0 0 0 0 0] 0.953601

ExecutionTime = 50.67 s  ClockTime = 800 s

Time = 0.2125
Courant Number mean: 0.226854 max: 0.505271
DILUPBiCG:  Solving for T, Initial residual = 0.00344227, Final residual = 4.06494e-11, No Iterations 3
DILUPBiCG:  Solving for T, Initial residual = 8.13527e-06, Final residual = 2.41453e-11, No Iterations 2
DILUPBiCG:  Solving for T, Initial residual = 4.46297e-08, Final residual = 1.14579e-10, No Iterations 1
DILUPBiCG:  Solving for T, Initial residual = 2.65561e-09, Final residual = 2.65561e-09, No Iterations 0
 T goes from min(T) [0 0 0 0 0 0 0] 7.89283e-21 to max(T) [0 0 0 0 0 0 0] 0.9534

ExecutionTime = 51.2 s  ClockTime = 808 s

Time = 0.215
Courant Number mean: 0.226724 max: 0.505449
DILUPBiCG:  Solving for T, Initial residual = 0.0034434, Final residual = 4.04991e-11, No Iterations 3
DILUPBiCG:  Solving for T, Initial residual = 8.16566e-06, Final residual = 2.40092e-11, No Iterations 2
DILUPBiCG:  Solving for T, Initial residual = 4.53323e-08, Final residual = 1.15483e-10, No Iterations 1
DILUPBiCG:  Solving for T, Initial residual = 2.71092e-09, Final residual = 2.71092e-09, No Iterations 0
 T goes from min(T) [0 0 0 0 0 0 0] 7.7151e-21 to max(T) [0 0 0 0 0 0 0] 0.953448

ExecutionTime = 51.73 s  ClockTime = 816 s

Time = 0.2175
Courant Number mean: 0.226593 max: 0.50562
DILUPBiCG:  Solving for T, Initial residual = 0.00344453, Final residual = 4.03636e-11, No Iterations 3
DILUPBiCG:  Solving for T, Initial residual = 8.19666e-06, Final residual = 2.38902e-11, No Iterations 2
DILUPBiCG:  Solving for T, Initial residual = 4.60517e-08, Final residual = 1.16405e-10, No Iterations 1
DILUPBiCG:  Solving for T, Initial residual = 2.766e-09, Final residual = 2.766e-09, No Iterations 0
 T goes from min(T) [0 0 0 0 0 0 0] 7.631e-21 to max(T) [0 0 0 0 0 0 0] 0.953558

ExecutionTime = 52.24 s  ClockTime = 824 s

Time = 0.22
Courant Number mean: 0.226462 max: 0.505782
DILUPBiCG:  Solving for T, Initial residual = 0.00344593, Final residual = 4.0245e-11, No Iterations 3
DILUPBiCG:  Solving for T, Initial residual = 8.22771e-06, Final residual = 2.37846e-11, No Iterations 2
DILUPBiCG:  Solving for T, Initial residual = 4.67832e-08, Final residual = 1.1731e-10, No Iterations 1
DILUPBiCG:  Solving for T, Initial residual = 2.82176e-09, Final residual = 2.82176e-09, No Iterations 0
 T goes from min(T) [0 0 0 0 0 0 0] 7.64017e-21 to max(T) [0 0 0 0 0 0 0] 0.953306

ExecutionTime = 52.76 s  ClockTime = 832 s

Time = 0.2225
Courant Number mean: 0.22633 max: 0.505997
DILUPBiCG:  Solving for T, Initial residual = 0.00344749, Final residual = 4.01452e-11, No Iterations 3
DILUPBiCG:  Solving for T, Initial residual = 8.25836e-06, Final residual = 2.36958e-11, No Iterations 2
DILUPBiCG:  Solving for T, Initial residual = 4.75213e-08, Final residual = 1.182e-10, No Iterations 1
DILUPBiCG:  Solving for T, Initial residual = 2.87808e-09, Final residual = 2.87808e-09, No Iterations 0
 T goes from min(T) [0 0 0 0 0 0 0] 7.74261e-21 to max(T) [0 0 0 0 0 0 0] 0.953588

ExecutionTime = 53.28 s  ClockTime = 839 s

Time = 0.225
Courant Number mean: 0.226199 max: 0.506221
DILUPBiCG:  Solving for T, Initial residual = 0.0034489, Final residual = 4.01028e-11, No Iterations 3
DILUPBiCG:  Solving for T, Initial residual = 8.28868e-06, Final residual = 2.38943e-11, No Iterations 2
DILUPBiCG:  Solving for T, Initial residual = 4.82471e-08, Final residual = 1.19062e-10, No Iterations 1
DILUPBiCG:  Solving for T, Initial residual = 2.93354e-09, Final residual = 2.93354e-09, No Iterations 0
 T goes from min(T) [0 0 0 0 0 0 0] 7.93868e-21 to max(T) [0 0 0 0 0 0 0] 0.953943

ExecutionTime = 53.78 s  ClockTime = 847 s

Time = 0.2275
Courant Number mean: 0.226066 max: 0.506437
DILUPBiCG:  Solving for T, Initial residual = 0.00345019, Final residual = 4.01191e-11, No Iterations 3
DILUPBiCG:  Solving for T, Initial residual = 8.3193e-06, Final residual = 2.41606e-11, No Iterations 2
DILUPBiCG:  Solving for T, Initial residual = 4.89549e-08, Final residual = 1.19912e-10, No Iterations 1
DILUPBiCG:  Solving for T, Initial residual = 2.98715e-09, Final residual = 2.98715e-09, No Iterations 0
 T goes from min(T) [0 0 0 0 0 0 0] 8.22911e-21 to max(T) [0 0 0 0 0 0 0] 0.954134

ExecutionTime = 54.31 s  ClockTime = 855 s

Time = 0.23
Courant Number mean: 0.225932 max: 0.506644
DILUPBiCG:  Solving for T, Initial residual = 0.00345138, Final residual = 4.0157e-11, No Iterations 3
DILUPBiCG:  Solving for T, Initial residual = 8.35139e-06, Final residual = 2.44049e-11, No Iterations 2
DILUPBiCG:  Solving for T, Initial residual = 4.96737e-08, Final residual = 1.20817e-10, No Iterations 1
DILUPBiCG:  Solving for T, Initial residual = 3.0391e-09, Final residual = 3.0391e-09, No Iterations 0
 T goes from min(T) [0 0 0 0 0 0 0] 8.22289e-21 to max(T) [0 0 0 0 0 0 0] 0.954163

ExecutionTime = 54.85 s  ClockTime = 863 s

Time = 0.2325
Courant Number mean: 0.225796 max: 0.506844
DILUPBiCG:  Solving for T, Initial residual = 0.00345247, Final residual = 4.02211e-11, No Iterations 3
DILUPBiCG:  Solving for T, Initial residual = 8.38379e-06, Final residual = 2.46299e-11, No Iterations 2
DILUPBiCG:  Solving for T, Initial residual = 5.03823e-08, Final residual = 1.21702e-10, No Iterations 1
DILUPBiCG:  Solving for T, Initial residual = 3.09101e-09, Final residual = 3.09101e-09, No Iterations 0
 T goes from min(T) [0 0 0 0 0 0 0] 7.92521e-21 to max(T) [0 0 0 0 0 0 0] 0.954035

ExecutionTime = 55.35 s  ClockTime = 871 s

Time = 0.235
Courant Number mean: 0.22566 max: 0.507034
DILUPBiCG:  Solving for T, Initial residual = 0.00345399, Final residual = 4.03068e-11, No Iterations 3
DILUPBiCG:  Solving for T, Initial residual = 8.41628e-06, Final residual = 2.48508e-11, No Iterations 2
DILUPBiCG:  Solving for T, Initial residual = 5.10825e-08, Final residual = 1.2257e-10, No Iterations 1
DILUPBiCG:  Solving for T, Initial residual = 3.14506e-09, Final residual = 3.14506e-09, No Iterations 0
 T goes from min(T) [0 0 0 0 0 0 0] 7.72164e-21 to max(T) [0 0 0 0 0 0 0] 0.953754

ExecutionTime = 55.88 s  ClockTime = 878 s

Time = 0.2375
Courant Number mean: 0.225522 max: 0.507217
DILUPBiCG:  Solving for T, Initial residual = 0.00345541, Final residual = 4.04149e-11, No Iterations 3
DILUPBiCG:  Solving for T, Initial residual = 8.44863e-06, Final residual = 2.50649e-11, No Iterations 2
DILUPBiCG:  Solving for T, Initial residual = 5.17663e-08, Final residual = 1.234e-10, No Iterations 1
DILUPBiCG:  Solving for T, Initial residual = 3.19732e-09, Final residual = 3.19732e-09, No Iterations 0
 T goes from min(T) [0 0 0 0 0 0 0] 7.61137e-21 to max(T) [0 0 0 0 0 0 0] 0.953333

ExecutionTime = 56.42 s  ClockTime = 887 s

Time = 0.24
Courant Number mean: 0.225383 max: 0.507391
DILUPBiCG:  Solving for T, Initial residual = 0.00345694, Final residual = 4.05455e-11, No Iterations 3
DILUPBiCG:  Solving for T, Initial residual = 8.48049e-06, Final residual = 2.52616e-11, No Iterations 2
DILUPBiCG:  Solving for T, Initial residual = 5.24488e-08, Final residual = 1.24224e-10, No Iterations 1
DILUPBiCG:  Solving for T, Initial residual = 3.24785e-09, Final residual = 3.24785e-09, No Iterations 0
 T goes from min(T) [0 0 0 0 0 0 0] 7.59398e-21 to max(T) [0 0 0 0 0 0 0] 0.953341

ExecutionTime = 56.93 s  ClockTime = 894 s

Time = 0.2425
Courant Number mean: 0.225245 max: 0.507556
DILUPBiCG:  Solving for T, Initial residual = 0.00345825, Final residual = 4.07052e-11, No Iterations 3
DILUPBiCG:  Solving for T, Initial residual = 8.51341e-06, Final residual = 2.54285e-11, No Iterations 2
DILUPBiCG:  Solving for T, Initial residual = 5.31588e-08, Final residual = 1.25112e-10, No Iterations 1
DILUPBiCG:  Solving for T, Initial residual = 3.29865e-09, Final residual = 3.29865e-09, No Iterations 0
 T goes from min(T) [0 0 0 0 0 0 0] 7.66943e-21 to max(T) [0 0 0 0 0 0 0] 0.953355

ExecutionTime = 57.46 s  ClockTime = 902 s

Time = 0.245
Courant Number mean: 0.225106 max: 0.507733
DILUPBiCG:  Solving for T, Initial residual = 0.00345954, Final residual = 4.08874e-11, No Iterations 3
DILUPBiCG:  Solving for T, Initial residual = 8.54734e-06, Final residual = 2.55781e-11, No Iterations 2
DILUPBiCG:  Solving for T, Initial residual = 5.38778e-08, Final residual = 1.26033e-10, No Iterations 1
DILUPBiCG:  Solving for T, Initial residual = 3.34849e-09, Final residual = 3.34849e-09, No Iterations 0
 T goes from min(T) [0 0 0 0 0 0 0] 7.83803e-21 to max(T) [0 0 0 0 0 0 0] 0.953552

ExecutionTime = 57.97 s  ClockTime = 910 s

Time = 0.2475
Courant Number mean: 0.224966 max: 0.507931
DILUPBiCG:  Solving for T, Initial residual = 0.00346076, Final residual = 4.10954e-11, No Iterations 3
DILUPBiCG:  Solving for T, Initial residual = 8.58115e-06, Final residual = 2.57222e-11, No Iterations 2
DILUPBiCG:  Solving for T, Initial residual = 5.45881e-08, Final residual = 1.26933e-10, No Iterations 1
DILUPBiCG:  Solving for T, Initial residual = 3.39877e-09, Final residual = 3.39877e-09, No Iterations 0
 T goes from min(T) [0 0 0 0 0 0 0] 8.10048e-21 to max(T) [0 0 0 0 0 0 0] 0.953521

ExecutionTime = 58.49 s  ClockTime = 918 s

Time = 0.25
Courant Number mean: 0.224825 max: 0.508121
DILUPBiCG:  Solving for T, Initial residual = 0.00346219, Final residual = 4.13299e-11, No Iterations 3
DILUPBiCG:  Solving for T, Initial residual = 8.61445e-06, Final residual = 2.58492e-11, No Iterations 2
DILUPBiCG:  Solving for T, Initial residual = 5.5276e-08, Final residual = 1.278e-10, No Iterations 1
DILUPBiCG:  Solving for T, Initial residual = 3.44759e-09, Final residual = 3.44759e-09, No Iterations 0
 T goes from min(T) [0 0 0 0 0 0 0] 8.28909e-21 to max(T) [0 0 0 0 0 0 0] 0.953376

ExecutionTime = 59.01 s  ClockTime = 925 s

Time = 0.2525
Courant Number mean: 0.224684 max: 0.508303
DILUPBiCG:  Solving for T, Initial residual = 0.00346374, Final residual = 4.15908e-11, No Iterations 3
DILUPBiCG:  Solving for T, Initial residual = 8.64719e-06, Final residual = 2.59557e-11, No Iterations 2
DILUPBiCG:  Solving for T, Initial residual = 5.59421e-08, Final residual = 1.2869e-10, No Iterations 1
DILUPBiCG:  Solving for T, Initial residual = 3.49436e-09, Final residual = 3.49436e-09, No Iterations 0
 T goes from min(T) [0 0 0 0 0 0 0] 7.96608e-21 to max(T) [0 0 0 0 0 0 0] 0.953354

ExecutionTime = 59.53 s  ClockTime = 933 s

Time = 0.255
Courant Number mean: 0.224541 max: 0.508476
DILUPBiCG:  Solving for T, Initial residual = 0.0034653, Final residual = 4.18807e-11, No Iterations 3
DILUPBiCG:  Solving for T, Initial residual = 8.68002e-06, Final residual = 2.60385e-11, No Iterations 2
DILUPBiCG:  Solving for T, Initial residual = 5.66121e-08, Final residual = 1.29605e-10, No Iterations 1
DILUPBiCG:  Solving for T, Initial residual = 3.53857e-09, Final residual = 3.53857e-09, No Iterations 0
 T goes from min(T) [0 0 0 0 0 0 0] 7.73703e-21 to max(T) [0 0 0 0 0 0 0] 0.953786

ExecutionTime = 60.07 s  ClockTime = 941 s

Time = 0.2575
Courant Number mean: 0.224397 max: 0.50864
DILUPBiCG:  Solving for T, Initial residual = 0.00346683, Final residual = 4.22005e-11, No Iterations 3
DILUPBiCG:  Solving for T, Initial residual = 8.7139e-06, Final residual = 2.61168e-11, No Iterations 2
DILUPBiCG:  Solving for T, Initial residual = 5.72821e-08, Final residual = 1.30533e-10, No Iterations 1
DILUPBiCG:  Solving for T, Initial residual = 3.58237e-09, Final residual = 3.58237e-09, No Iterations 0
 T goes from min(T) [0 0 0 0 0 0 0] 7.60105e-21 to max(T) [0 0 0 0 0 0 0] 0.954062

ExecutionTime = 60.58 s  ClockTime = 949 s

Time = 0.26
Courant Number mean: 0.224251 max: 0.508796
DILUPBiCG:  Solving for T, Initial residual = 0.00346795, Final residual = 4.25553e-11, No Iterations 3
DILUPBiCG:  Solving for T, Initial residual = 8.7492e-06, Final residual = 2.61816e-11, No Iterations 2
DILUPBiCG:  Solving for T, Initial residual = 5.79365e-08, Final residual = 1.31432e-10, No Iterations 1
DILUPBiCG:  Solving for T, Initial residual = 3.62919e-09, Final residual = 3.62919e-09, No Iterations 0
 T goes from min(T) [0 0 0 0 0 0 0] 7.55763e-21 to max(T) [0 0 0 0 0 0 0] 0.954186

ExecutionTime = 61.1 s  ClockTime = 957 s

Time = 0.2625
Courant Number mean: 0.224106 max: 0.508943
DILUPBiCG:  Solving for T, Initial residual = 0.00346901, Final residual = 4.29458e-11, No Iterations 3
DILUPBiCG:  Solving for T, Initial residual = 8.78433e-06, Final residual = 2.62196e-11, No Iterations 2
DILUPBiCG:  Solving for T, Initial residual = 5.85799e-08, Final residual = 1.32331e-10, No Iterations 1
DILUPBiCG:  Solving for T, Initial residual = 3.67378e-09, Final residual = 3.67378e-09, No Iterations 0
 T goes from min(T) [0 0 0 0 0 0 0] 7.60668e-21 to max(T) [0 0 0 0 0 0 0] 0.954162

ExecutionTime = 61.61 s  ClockTime = 964 s

Time = 0.265
Courant Number mean: 0.223961 max: 0.509097
DILUPBiCG:  Solving for T, Initial residual = 0.00347046, Final residual = 4.3366e-11, No Iterations 3
DILUPBiCG:  Solving for T, Initial residual = 8.81922e-06, Final residual = 2.62183e-11, No Iterations 2
DILUPBiCG:  Solving for T, Initial residual = 5.92268e-08, Final residual = 1.33232e-10, No Iterations 1
DILUPBiCG:  Solving for T, Initial residual = 3.71573e-09, Final residual = 3.71573e-09, No Iterations 0
 T goes from min(T) [0 0 0 0 0 0 0] 7.74845e-21 to max(T) [0 0 0 0 0 0 0] 0.953994

ExecutionTime = 62.12 s  ClockTime = 972 s

Time = 0.2675
Courant Number mean: 0.223815 max: 0.509268
DILUPBiCG:  Solving for T, Initial residual = 0.00347221, Final residual = 4.38205e-11, No Iterations 3
DILUPBiCG:  Solving for T, Initial residual = 8.85435e-06, Final residual = 2.61965e-11, No Iterations 2
DILUPBiCG:  Solving for T, Initial residual = 5.98973e-08, Final residual = 1.34194e-10, No Iterations 1
DILUPBiCG:  Solving for T, Initial residual = 3.75822e-09, Final residual = 3.75822e-09, No Iterations 0
 T goes from min(T) [0 0 0 0 0 0 0] 7.98358e-21 to max(T) [0 0 0 0 0 0 0] 0.953685

ExecutionTime = 62.62 s  ClockTime = 980 s

Time = 0.27
Courant Number mean: 0.223668 max: 0.50947
DILUPBiCG:  Solving for T, Initial residual = 0.00347368, Final residual = 4.43098e-11, No Iterations 3
DILUPBiCG:  Solving for T, Initial residual = 8.88893e-06, Final residual = 2.61565e-11, No Iterations 2
DILUPBiCG:  Solving for T, Initial residual = 6.05799e-08, Final residual = 1.35169e-10, No Iterations 1
DILUPBiCG:  Solving for T, Initial residual = 3.79841e-09, Final residual = 3.79841e-09, No Iterations 0
 T goes from min(T) [0 0 0 0 0 0 0] 8.31311e-21 to max(T) [0 0 0 0 0 0 0] 0.953611

ExecutionTime = 63.12 s  ClockTime = 987 s

Time = 0.2725
Courant Number mean: 0.22352 max: 0.509664
DILUPBiCG:  Solving for T, Initial residual = 0.00347515, Final residual = 4.48339e-11, No Iterations 3
DILUPBiCG:  Solving for T, Initial residual = 8.92353e-06, Final residual = 2.60867e-11, No Iterations 2
DILUPBiCG:  Solving for T, Initial residual = 6.12302e-08, Final residual = 1.36096e-10, No Iterations 1
DILUPBiCG:  Solving for T, Initial residual = 3.83829e-09, Final residual = 3.83829e-09, No Iterations 0
 T goes from min(T) [0 0 0 0 0 0 0] 8.01606e-21 to max(T) [0 0 0 0 0 0 0] 0.953583

ExecutionTime = 63.63 s  ClockTime = 995 s

Time = 0.275
Courant Number mean: 0.223372 max: 0.509849
DILUPBiCG:  Solving for T, Initial residual = 0.00347666, Final residual = 4.53944e-11, No Iterations 3
DILUPBiCG:  Solving for T, Initial residual = 8.95845e-06, Final residual = 2.59841e-11, No Iterations 2
DILUPBiCG:  Solving for T, Initial residual = 6.1848e-08, Final residual = 1.36998e-10, No Iterations 1
DILUPBiCG:  Solving for T, Initial residual = 3.87739e-09, Final residual = 3.87739e-09, No Iterations 0
 T goes from min(T) [0 0 0 0 0 0 0] 7.76191e-21 to max(T) [0 0 0 0 0 0 0] 0.953517

ExecutionTime = 64.14 s  ClockTime = 1002 s

Time = 0.2775
Courant Number mean: 0.223222 max: 0.510025
DILUPBiCG:  Solving for T, Initial residual = 0.00347782, Final residual = 4.59968e-11, No Iterations 3
DILUPBiCG:  Solving for T, Initial residual = 8.99357e-06, Final residual = 2.58746e-11, No Iterations 2
DILUPBiCG:  Solving for T, Initial residual = 6.24472e-08, Final residual = 1.37995e-10, No Iterations 1
DILUPBiCG:  Solving for T, Initial residual = 3.91431e-09, Final residual = 3.91431e-09, No Iterations 0
 T goes from min(T) [0 0 0 0 0 0 0] 7.60066e-21 to max(T) [0 0 0 0 0 0 0] 0.953596

ExecutionTime = 64.66 s  ClockTime = 1010 s

Time = 0.28
Courant Number mean: 0.223071 max: 0.510193
DILUPBiCG:  Solving for T, Initial residual = 0.00347905, Final residual = 4.66426e-11, No Iterations 3
DILUPBiCG:  Solving for T, Initial residual = 9.02952e-06, Final residual = 2.61884e-11, No Iterations 2
DILUPBiCG:  Solving for T, Initial residual = 6.30254e-08, Final residual = 1.38994e-10, No Iterations 1
DILUPBiCG:  Solving for T, Initial residual = 3.94843e-09, Final residual = 3.94843e-09, No Iterations 0
 T goes from min(T) [0 0 0 0 0 0 0] 7.53173e-21 to max(T) [0 0 0 0 0 0 0] 0.953431

ExecutionTime = 65.16 s  ClockTime = 1018 s

Time = 0.2825
Courant Number mean: 0.22292 max: 0.510353
DILUPBiCG:  Solving for T, Initial residual = 0.00348044, Final residual = 4.73414e-11, No Iterations 3
DILUPBiCG:  Solving for T, Initial residual = 9.06685e-06, Final residual = 2.6529e-11, No Iterations 2
DILUPBiCG:  Solving for T, Initial residual = 6.36356e-08, Final residual = 1.40054e-10, No Iterations 1
DILUPBiCG:  Solving for T, Initial residual = 3.9809e-09, Final residual = 3.9809e-09, No Iterations 0
 T goes from min(T) [0 0 0 0 0 0 0] 7.55495e-21 to max(T) [0 0 0 0 0 0 0] 0.952952

ExecutionTime = 65.67 s  ClockTime = 1025 s

Time = 0.285
Courant Number mean: 0.222768 max: 0.510504
DILUPBiCG:  Solving for T, Initial residual = 0.00348223, Final residual = 4.80892e-11, No Iterations 3
DILUPBiCG:  Solving for T, Initial residual = 9.10435e-06, Final residual = 2.68906e-11, No Iterations 2
DILUPBiCG:  Solving for T, Initial residual = 6.42184e-08, Final residual = 1.41139e-10, No Iterations 1
DILUPBiCG:  Solving for T, Initial residual = 4.01506e-09, Final residual = 4.01506e-09, No Iterations 0
 T goes from min(T) [0 0 0 0 0 0 0] 7.67051e-21 to max(T) [0 0 0 0 0 0 0] 0.95304

ExecutionTime = 66.2 s  ClockTime = 1033 s

Time = 0.2875
Courant Number mean: 0.222616 max: 0.510646
DILUPBiCG:  Solving for T, Initial residual = 0.00348401, Final residual = 4.88872e-11, No Iterations 3
DILUPBiCG:  Solving for T, Initial residual = 9.14117e-06, Final residual = 2.72672e-11, No Iterations 2
DILUPBiCG:  Solving for T, Initial residual = 6.47903e-08, Final residual = 1.42204e-10, No Iterations 1
DILUPBiCG:  Solving for T, Initial residual = 4.04858e-09, Final residual = 4.04858e-09, No Iterations 0
 T goes from min(T) [0 0 0 0 0 0 0] 7.87901e-21 to max(T) [0 0 0 0 0 0 0] 0.953485

ExecutionTime = 66.7 s  ClockTime = 1040 s

Time = 0.29
Courant Number mean: 0.222464 max: 0.51078
DILUPBiCG:  Solving for T, Initial residual = 0.00348559, Final residual = 4.97358e-11, No Iterations 3
DILUPBiCG:  Solving for T, Initial residual = 9.17645e-06, Final residual = 2.76736e-11, No Iterations 2
DILUPBiCG:  Solving for T, Initial residual = 6.53645e-08, Final residual = 1.4324e-10, No Iterations 1
DILUPBiCG:  Solving for T, Initial residual = 4.07986e-09, Final residual = 4.07986e-09, No Iterations 0
 T goes from min(T) [0 0 0 0 0 0 0] 8.18143e-21 to max(T) [0 0 0 0 0 0 0] 0.953786

ExecutionTime = 67.22 s  ClockTime = 1047 s

Time = 0.2925
Courant Number mean: 0.222311 max: 0.510906
DILUPBiCG:  Solving for T, Initial residual = 0.00348682, Final residual = 5.06389e-11, No Iterations 3
DILUPBiCG:  Solving for T, Initial residual = 9.2125e-06, Final residual = 2.81298e-11, No Iterations 2
DILUPBiCG:  Solving for T, Initial residual = 6.59515e-08, Final residual = 1.44314e-10, No Iterations 1
DILUPBiCG:  Solving for T, Initial residual = 4.11036e-09, Final residual = 4.11036e-09, No Iterations 0
 T goes from min(T) [0 0 0 0 0 0 0] 8.07569e-21 to max(T) [0 0 0 0 0 0 0] 0.953946

ExecutionTime = 67.74 s  ClockTime = 1054 s

Time = 0.295
Courant Number mean: 0.222157 max: 0.511023
DILUPBiCG:  Solving for T, Initial residual = 0.00348797, Final residual = 5.16666e-11, No Iterations 3
DILUPBiCG:  Solving for T, Initial residual = 9.25029e-06, Final residual = 2.86146e-11, No Iterations 2
DILUPBiCG:  Solving for T, Initial residual = 6.65597e-08, Final residual = 1.45452e-10, No Iterations 1
DILUPBiCG:  Solving for T, Initial residual = 4.13954e-09, Final residual = 4.13954e-09, No Iterations 0
 T goes from min(T) [0 0 0 0 0 0 0] 7.79682e-21 to max(T) [0 0 0 0 0 0 0] 0.953968

ExecutionTime = 68.24 s  ClockTime = 1061 s

Time = 0.2975
Courant Number mean: 0.222002 max: 0.511159
DILUPBiCG:  Solving for T, Initial residual = 0.00348946, Final residual = 5.27916e-11, No Iterations 3
DILUPBiCG:  Solving for T, Initial residual = 9.28973e-06, Final residual = 2.91297e-11, No Iterations 2
DILUPBiCG:  Solving for T, Initial residual = 6.71317e-08, Final residual = 1.46574e-10, No Iterations 1
DILUPBiCG:  Solving for T, Initial residual = 4.16511e-09, Final residual = 4.16511e-09, No Iterations 0
 T goes from min(T) [0 0 0 0 0 0 0] 7.61076e-21 to max(T) [0 0 0 0 0 0 0] 0.953856

ExecutionTime = 68.77 s  ClockTime = 1069 s

Time = 0.3
Courant Number mean: 0.221846 max: 0.511338
DILUPBiCG:  Solving for T, Initial residual = 0.00349132, Final residual = 5.39985e-11, No Iterations 3
DILUPBiCG:  Solving for T, Initial residual = 9.32964e-06, Final residual = 2.96582e-11, No Iterations 2
DILUPBiCG:  Solving for T, Initial residual = 6.76836e-08, Final residual = 1.47702e-10, No Iterations 1
DILUPBiCG:  Solving for T, Initial residual = 4.19268e-09, Final residual = 4.19268e-09, No Iterations 0
 T goes from min(T) [0 0 0 0 0 0 0] 7.51683e-21 to max(T) [0 0 0 0 0 0 0] 0.95395

ExecutionTime = 69.29 s  ClockTime = 1076 s

Time = 0.3025
Courant Number mean: 0.221689 max: 0.511509
DILUPBiCG:  Solving for T, Initial residual = 0.00349304, Final residual = 5.52575e-11, No Iterations 3
DILUPBiCG:  Solving for T, Initial residual = 9.3675e-06, Final residual = 3.022e-11, No Iterations 2
DILUPBiCG:  Solving for T, Initial residual = 6.82195e-08, Final residual = 1.48923e-10, No Iterations 1
DILUPBiCG:  Solving for T, Initial residual = 4.21872e-09, Final residual = 4.21872e-09, No Iterations 0
 T goes from min(T) [0 0 0 0 0 0 0] 7.5148e-21 to max(T) [0 0 0 0 0 0 0] 0.954136

ExecutionTime = 69.85 s  ClockTime = 1084 s

Time = 0.305
Courant Number mean: 0.221531 max: 0.511672
DILUPBiCG:  Solving for T, Initial residual = 0.00349464, Final residual = 5.65724e-11, No Iterations 3
DILUPBiCG:  Solving for T, Initial residual = 9.40323e-06, Final residual = 3.08504e-11, No Iterations 2
DILUPBiCG:  Solving for T, Initial residual = 6.87428e-08, Final residual = 1.50203e-10, No Iterations 1
DILUPBiCG:  Solving for T, Initial residual = 4.24154e-09, Final residual = 4.24154e-09, No Iterations 0
 T goes from min(T) [0 0 0 0 0 0 0] 7.60479e-21 to max(T) [0 0 0 0 0 0 0] 0.954186

ExecutionTime = 70.37 s  ClockTime = 1091 s

Time = 0.3075
Courant Number mean: 0.221374 max: 0.511826
DILUPBiCG:  Solving for T, Initial residual = 0.00349613, Final residual = 5.79409e-11, No Iterations 3
DILUPBiCG:  Solving for T, Initial residual = 9.43962e-06, Final residual = 3.15248e-11, No Iterations 2
DILUPBiCG:  Solving for T, Initial residual = 6.92334e-08, Final residual = 1.51448e-10, No Iterations 1
DILUPBiCG:  Solving for T, Initial residual = 4.26107e-09, Final residual = 4.26107e-09, No Iterations 0
 T goes from min(T) [0 0 0 0 0 0 0] 7.78734e-21 to max(T) [0 0 0 0 0 0 0] 0.954103

ExecutionTime = 70.89 s  ClockTime = 1098 s

Time = 0.31
Courant Number mean: 0.221216 max: 0.511971
DILUPBiCG:  Solving for T, Initial residual = 0.00349763, Final residual = 5.93793e-11, No Iterations 3
DILUPBiCG:  Solving for T, Initial residual = 9.47764e-06, Final residual = 3.22393e-11, No Iterations 2
DILUPBiCG:  Solving for T, Initial residual = 6.97263e-08, Final residual = 1.52746e-10, No Iterations 1
DILUPBiCG:  Solving for T, Initial residual = 4.28172e-09, Final residual = 4.28172e-09, No Iterations 0
 T goes from min(T) [0 0 0 0 0 0 0] 8.06338e-21 to max(T) [0 0 0 0 0 0 0] 0.953891

ExecutionTime = 71.41 s  ClockTime = 1106 s

Time = 0.3125
Courant Number mean: 0.221057 max: 0.512108
DILUPBiCG:  Solving for T, Initial residual = 0.00349894, Final residual = 6.09023e-11, No Iterations 3
DILUPBiCG:  Solving for T, Initial residual = 9.51721e-06, Final residual = 3.2998e-11, No Iterations 2
DILUPBiCG:  Solving for T, Initial residual = 7.02238e-08, Final residual = 1.54083e-10, No Iterations 1
DILUPBiCG:  Solving for T, Initial residual = 4.30281e-09, Final residual = 4.30281e-09, No Iterations 0
 T goes from min(T) [0 0 0 0 0 0 0] 8.1454e-21 to max(T) [0 0 0 0 0 0 0] 0.953565

ExecutionTime = 71.92 s  ClockTime = 1112 s

Time = 0.315
Courant Number mean: 0.220898 max: 0.512237
DILUPBiCG:  Solving for T, Initial residual = 0.00350035, Final residual = 6.24725e-11, No Iterations 3
DILUPBiCG:  Solving for T, Initial residual = 9.55728e-06, Final residual = 3.38039e-11, No Iterations 2
DILUPBiCG:  Solving for T, Initial residual = 7.07393e-08, Final residual = 1.55451e-10, No Iterations 1
DILUPBiCG:  Solving for T, Initial residual = 4.3223e-09, Final residual = 4.3223e-09, No Iterations 0
 T goes from min(T) [0 0 0 0 0 0 0] 7.8422e-21 to max(T) [0 0 0 0 0 0 0] 0.953607

ExecutionTime = 72.43 s  ClockTime = 1119 s

Time = 0.3175
Courant Number mean: 0.220738 max: 0.512357
DILUPBiCG:  Solving for T, Initial residual = 0.00350203, Final residual = 6.40959e-11, No Iterations 3
DILUPBiCG:  Solving for T, Initial residual = 9.59676e-06, Final residual = 3.46824e-11, No Iterations 2
DILUPBiCG:  Solving for T, Initial residual = 7.12375e-08, Final residual = 1.56851e-10, No Iterations 1
DILUPBiCG:  Solving for T, Initial residual = 4.34118e-09, Final residual = 4.34118e-09, No Iterations 0
 T goes from min(T) [0 0 0 0 0 0 0] 7.63177e-21 to max(T) [0 0 0 0 0 0 0] 0.953553

ExecutionTime = 72.94 s  ClockTime = 1126 s

Time = 0.32
Courant Number mean: 0.220577 max: 0.512468
DILUPBiCG:  Solving for T, Initial residual = 0.00350387, Final residual = 6.58157e-11, No Iterations 3
DILUPBiCG:  Solving for T, Initial residual = 9.6363e-06, Final residual = 3.56468e-11, No Iterations 2
DILUPBiCG:  Solving for T, Initial residual = 7.17412e-08, Final residual = 1.58315e-10, No Iterations 1
DILUPBiCG:  Solving for T, Initial residual = 4.35951e-09, Final residual = 4.35951e-09, No Iterations 0
 T goes from min(T) [0 0 0 0 0 0 0] 7.51338e-21 to max(T) [0 0 0 0 0 0 0] 0.953372

ExecutionTime = 73.44 s  ClockTime = 1132 s

Time = 0.3225
Courant Number mean: 0.220415 max: 0.512571
DILUPBiCG:  Solving for T, Initial residual = 0.00350565, Final residual = 6.76008e-11, No Iterations 3
DILUPBiCG:  Solving for T, Initial residual = 9.67586e-06, Final residual = 3.66788e-11, No Iterations 2
DILUPBiCG:  Solving for T, Initial residual = 7.22671e-08, Final residual = 1.59876e-10, No Iterations 1
DILUPBiCG:  Solving for T, Initial residual = 4.37694e-09, Final residual = 4.37694e-09, No Iterations 0
 T goes from min(T) [0 0 0 0 0 0 0] 7.48668e-21 to max(T) [0 0 0 0 0 0 0] 0.953067

ExecutionTime = 73.97 s  ClockTime = 1139 s

Time = 0.325
Courant Number mean: 0.220253 max: 0.512675
DILUPBiCG:  Solving for T, Initial residual = 0.00350732, Final residual = 6.94507e-11, No Iterations 3
DILUPBiCG:  Solving for T, Initial residual = 9.71516e-06, Final residual = 3.77811e-11, No Iterations 2
DILUPBiCG:  Solving for T, Initial residual = 7.27631e-08, Final residual = 1.61458e-10, No Iterations 1
DILUPBiCG:  Solving for T, Initial residual = 4.39196e-09, Final residual = 4.39196e-09, No Iterations 0
 T goes from min(T) [0 0 0 0 0 0 0] 7.55174e-21 to max(T) [0 0 0 0 0 0 0] 0.953257

ExecutionTime = 74.48 s  ClockTime = 1146 s

Time = 0.3275
Courant Number mean: 0.220089 max: 0.512812
DILUPBiCG:  Solving for T, Initial residual = 0.00350896, Final residual = 7.14462e-11, No Iterations 3
[...]

ExecutionTime = 1254.78 s  ClockTime = 5399 s

Time = 5.92
Courant Number mean: 0.208237 max: 0.466317
DILUPBiCG:  Solving for T, Initial residual = 0.00455129, Final residual = 7.48633e-11, No Iterations 3
DILUPBiCG:  Solving for T, Initial residual = 3.01174e-05, Final residual = 4.11161e-09, No Iterations 2
DILUPBiCG:  Solving for T, Initial residual = 6.16453e-07, Final residual = 3.11789e-09, No Iterations 1
DILUPBiCG:  Solving for T, Initial residual = 2.76093e-08, Final residual = 2.38859e-10, No Iterations 1
 T goes from min(T) [0 0 0 0 0 0 0] -0.103162 to max(T) [0 0 0 0 0 0 0] 0.833413

ExecutionTime = 1255.31 s  ClockTime = 5400 s

Time = 5.9225
Courant Number mean: 0.208305 max: 0.465832
DILUPBiCG:  Solving for T, Initial residual = 0.00456009, Final residual = 7.58017e-11, No Iterations 3
DILUPBiCG:  Solving for T, Initial residual = 3.02243e-05, Final residual = 6.77692e-13, No Iterations 3
DILUPBiCG:  Solving for T, Initial residual = 6.20528e-07, Final residual = 3.11983e-09, No Iterations 1
DILUPBiCG:  Solving for T, Initial residual = 2.76996e-08, Final residual = 2.52019e-10, No Iterations 1
 T goes from min(T) [0 0 0 0 0 0 0] -0.102593 to max(T) [0 0 0 0 0 0 0] 0.833466

ExecutionTime = 1255.83 s  ClockTime = 5400 s

Time = 5.925
Courant Number mean: 0.208372 max: 0.46534
DILUPBiCG:  Solving for T, Initial residual = 0.00456828, Final residual = 7.67502e-11, No Iterations 3
DILUPBiCG:  Solving for T, Initial residual = 3.03632e-05, Final residual = 4.33469e-09, No Iterations 2
DILUPBiCG:  Solving for T, Initial residual = 6.24618e-07, Final residual = 3.11762e-09, No Iterations 1
DILUPBiCG:  Solving for T, Initial residual = 2.78004e-08, Final residual = 2.68e-10, No Iterations 1
 T goes from min(T) [0 0 0 0 0 0 0] -0.102639 to max(T) [0 0 0 0 0 0 0] 0.833474

ExecutionTime = 1256.34 s  ClockTime = 5401 s

Time = 5.9275
Courant Number mean: 0.208438 max: 0.464842
DILUPBiCG:  Solving for T, Initial residual = 0.00457638, Final residual = 7.77027e-11, No Iterations 3
DILUPBiCG:  Solving for T, Initial residual = 3.05022e-05, Final residual = 1.89184e-09, No Iterations 2
DILUPBiCG:  Solving for T, Initial residual = 6.2687e-07, Final residual = 3.08788e-09, No Iterations 1
DILUPBiCG:  Solving for T, Initial residual = 2.78281e-08, Final residual = 2.59286e-10, No Iterations 1
 T goes from min(T) [0 0 0 0 0 0 0] -0.103142 to max(T) [0 0 0 0 0 0 0] 0.833437

ExecutionTime = 1256.86 s  ClockTime = 5401 s

Time = 5.93
Courant Number mean: 0.208503 max: 0.464337
DILUPBiCG:  Solving for T, Initial residual = 0.00458401, Final residual = 7.86122e-11, No Iterations 3
DILUPBiCG:  Solving for T, Initial residual = 3.0642e-05, Final residual = 1.1475e-09, No Iterations 2
DILUPBiCG:  Solving for T, Initial residual = 6.29867e-07, Final residual = 3.05845e-09, No Iterations 1
DILUPBiCG:  Solving for T, Initial residual = 2.78351e-08, Final residual = 2.56296e-10, No Iterations 1
 T goes from min(T) [0 0 0 0 0 0 0] -0.103495 to max(T) [0 0 0 0 0 0 0] 0.833356

ExecutionTime = 1257.41 s  ClockTime = 5402 s

Time = 5.9325
Courant Number mean: 0.208568 max: 0.463825
DILUPBiCG:  Solving for T, Initial residual = 0.00459228, Final residual = 7.9458e-11, No Iterations 3
DILUPBiCG:  Solving for T, Initial residual = 3.07821e-05, Final residual = 7.93602e-10, No Iterations 2
DILUPBiCG:  Solving for T, Initial residual = 6.32891e-07, Final residual = 3.03144e-09, No Iterations 1
DILUPBiCG:  Solving for T, Initial residual = 2.78783e-08, Final residual = 2.54544e-10, No Iterations 1
 T goes from min(T) [0 0 0 0 0 0 0] -0.103623 to max(T) [0 0 0 0 0 0 0] 0.833232

ExecutionTime = 1257.98 s  ClockTime = 5402 s

Time = 5.935
Courant Number mean: 0.208632 max: 0.463339
DILUPBiCG:  Solving for T, Initial residual = 0.00460182, Final residual = 8.02164e-11, No Iterations 3
DILUPBiCG:  Solving for T, Initial residual = 3.09094e-05, Final residual = 5.93334e-10, No Iterations 2
DILUPBiCG:  Solving for T, Initial residual = 6.36351e-07, Final residual = 3.00372e-09, No Iterations 1
DILUPBiCG:  Solving for T, Initial residual = 2.79491e-08, Final residual = 2.53154e-10, No Iterations 1
 T goes from min(T) [0 0 0 0 0 0 0] -0.103606 to max(T) [0 0 0 0 0 0 0] 0.833215

ExecutionTime = 1258.61 s  ClockTime = 5403 s

Time = 5.9375
Courant Number mean: 0.208696 max: 0.462856
DILUPBiCG:  Solving for T, Initial residual = 0.00461092, Final residual = 8.08687e-11, No Iterations 3
DILUPBiCG:  Solving for T, Initial residual = 3.1031e-05, Final residual = 4.70612e-10, No Iterations 2
DILUPBiCG:  Solving for T, Initial residual = 6.40206e-07, Final residual = 2.97498e-09, No Iterations 1
DILUPBiCG:  Solving for T, Initial residual = 2.80204e-08, Final residual = 2.53198e-10, No Iterations 1
 T goes from min(T) [0 0 0 0 0 0 0] -0.103452 to max(T) [0 0 0 0 0 0 0] 0.833372

ExecutionTime = 1259.12 s  ClockTime = 5404 s

Time = 5.94
Courant Number mean: 0.20876 max: 0.462366
DILUPBiCG:  Solving for T, Initial residual = 0.00461845, Final residual = 8.15473e-11, No Iterations 3
DILUPBiCG:  Solving for T, Initial residual = 3.11447e-05, Final residual = 3.91054e-10, No Iterations 2
DILUPBiCG:  Solving for T, Initial residual = 6.43448e-07, Final residual = 2.94737e-09, No Iterations 1
DILUPBiCG:  Solving for T, Initial residual = 2.80683e-08, Final residual = 2.52996e-10, No Iterations 1
 T goes from min(T) [0 0 0 0 0 0 0] -0.103098 to max(T) [0 0 0 0 0 0 0] 0.833492

ExecutionTime = 1259.62 s  ClockTime = 5404 s

Time = 5.9425
Courant Number mean: 0.208823 max: 0.46187
DILUPBiCG:  Solving for T, Initial residual = 0.00462486, Final residual = 8.23742e-11, No Iterations 3
DILUPBiCG:  Solving for T, Initial residual = 3.12599e-05, Final residual = 3.36981e-10, No Iterations 2
DILUPBiCG:  Solving for T, Initial residual = 6.46834e-07, Final residual = 2.92678e-09, No Iterations 1
DILUPBiCG:  Solving for T, Initial residual = 2.80958e-08, Final residual = 2.52465e-10, No Iterations 1
 T goes from min(T) [0 0 0 0 0 0 0] -0.10275 to max(T) [0 0 0 0 0 0 0] 0.833574

ExecutionTime = 1260.12 s  ClockTime = 5405 s

Time = 5.945
Courant Number mean: 0.208886 max: 0.461368
DILUPBiCG:  Solving for T, Initial residual = 0.00463148, Final residual = 8.31297e-11, No Iterations 3
DILUPBiCG:  Solving for T, Initial residual = 3.13705e-05, Final residual = 2.98261e-10, No Iterations 2
DILUPBiCG:  Solving for T, Initial residual = 6.50042e-07, Final residual = 2.9031e-09, No Iterations 1
DILUPBiCG:  Solving for T, Initial residual = 2.81083e-08, Final residual = 2.51459e-10, No Iterations 1
 T goes from min(T) [0 0 0 0 0 0 0] -0.102278 to max(T) [0 0 0 0 0 0 0] 0.833619

ExecutionTime = 1260.63 s  ClockTime = 5405 s

Time = 5.9475
Courant Number mean: 0.208948 max: 0.460858
DILUPBiCG:  Solving for T, Initial residual = 0.00464045, Final residual = 8.38113e-11, No Iterations 3
DILUPBiCG:  Solving for T, Initial residual = 3.14863e-05, Final residual = 2.69609e-10, No Iterations 2
DILUPBiCG:  Solving for T, Initial residual = 6.53682e-07, Final residual = 2.88333e-09, No Iterations 1
DILUPBiCG:  Solving for T, Initial residual = 2.81494e-08, Final residual = 2.50185e-10, No Iterations 1
 T goes from min(T) [0 0 0 0 0 0 0] -0.10283 to max(T) [0 0 0 0 0 0 0] 0.833628

ExecutionTime = 1261.2 s  ClockTime = 5406 s

Time = 5.95
Courant Number mean: 0.209009 max: 0.460342
DILUPBiCG:  Solving for T, Initial residual = 0.00465062, Final residual = 8.44859e-11, No Iterations 3
DILUPBiCG:  Solving for T, Initial residual = 3.16124e-05, Final residual = 2.4784e-10, No Iterations 2
DILUPBiCG:  Solving for T, Initial residual = 6.56926e-07, Final residual = 2.86015e-09, No Iterations 1
DILUPBiCG:  Solving for T, Initial residual = 2.81914e-08, Final residual = 2.50412e-10, No Iterations 1
 T goes from min(T) [0 0 0 0 0 0 0] -0.103181 to max(T) [0 0 0 0 0 0 0] 0.833602

ExecutionTime = 1261.74 s  ClockTime = 5406 s

Time = 5.9525
Courant Number mean: 0.209069 max: 0.45983
DILUPBiCG:  Solving for T, Initial residual = 0.00466023, Final residual = 8.51379e-11, No Iterations 3
DILUPBiCG:  Solving for T, Initial residual = 3.17552e-05, Final residual = 2.30988e-10, No Iterations 2
DILUPBiCG:  Solving for T, Initial residual = 6.59414e-07, Final residual = 2.83273e-09, No Iterations 1
DILUPBiCG:  Solving for T, Initial residual = 2.82133e-08, Final residual = 2.50488e-10, No Iterations 1
 T goes from min(T) [0 0 0 0 0 0 0] -0.103381 to max(T) [0 0 0 0 0 0 0] 0.833542

ExecutionTime = 1262.29 s  ClockTime = 5407 s

Time = 5.955
Courant Number mean: 0.209129 max: 0.459326
DILUPBiCG:  Solving for T, Initial residual = 0.00466931, Final residual = 8.57314e-11, No Iterations 3
DILUPBiCG:  Solving for T, Initial residual = 3.19001e-05, Final residual = 2.17581e-10, No Iterations 2
DILUPBiCG:  Solving for T, Initial residual = 6.62458e-07, Final residual = 2.80414e-09, No Iterations 1
DILUPBiCG:  Solving for T, Initial residual = 2.82356e-08, Final residual = 2.5143e-10, No Iterations 1
 T goes from min(T) [0 0 0 0 0 0 0] -0.103434 to max(T) [0 0 0 0 0 0 0] 0.833449

ExecutionTime = 1262.85 s  ClockTime = 5407 s

Time = 5.9575
Courant Number mean: 0.209188 max: 0.458821
DILUPBiCG:  Solving for T, Initial residual = 0.00467743, Final residual = 8.62514e-11, No Iterations 3
DILUPBiCG:  Solving for T, Initial residual = 3.20049e-05, Final residual = 2.06554e-10, No Iterations 2
DILUPBiCG:  Solving for T, Initial residual = 6.65941e-07, Final residual = 2.77224e-09, No Iterations 1
DILUPBiCG:  Solving for T, Initial residual = 2.82675e-08, Final residual = 2.51947e-10, No Iterations 1
 T goes from min(T) [0 0 0 0 0 0 0] -0.10331 to max(T) [0 0 0 0 0 0 0] 0.833324

ExecutionTime = 1263.38 s  ClockTime = 5408 s

Time = 5.96
Courant Number mean: 0.209248 max: 0.458346
DILUPBiCG:  Solving for T, Initial residual = 0.00468411, Final residual = 8.6692e-11, No Iterations 3
DILUPBiCG:  Solving for T, Initial residual = 3.21111e-05, Final residual = 1.9746e-10, No Iterations 2
DILUPBiCG:  Solving for T, Initial residual = 6.6935e-07, Final residual = 2.73566e-09, No Iterations 1
DILUPBiCG:  Solving for T, Initial residual = 2.83065e-08, Final residual = 2.52162e-10, No Iterations 1
 T goes from min(T) [0 0 0 0 0 0 0] -0.103147 to max(T) [0 0 0 0 0 0 0] 0.833166

ExecutionTime = 1263.91 s  ClockTime = 5408 s

Time = 5.9625
Courant Number mean: 0.209307 max: 0.457863
DILUPBiCG:  Solving for T, Initial residual = 0.00469171, Final residual = 8.70885e-11, No Iterations 3
DILUPBiCG:  Solving for T, Initial residual = 3.22054e-05, Final residual = 1.89727e-10, No Iterations 2
DILUPBiCG:  Solving for T, Initial residual = 6.72262e-07, Final residual = 2.69859e-09, No Iterations 1
DILUPBiCG:  Solving for T, Initial residual = 2.83584e-08, Final residual = 2.5212e-10, No Iterations 1
 T goes from min(T) [0 0 0 0 0 0 0] -0.10274 to max(T) [0 0 0 0 0 0 0] 0.832979

ExecutionTime = 1264.44 s  ClockTime = 5409 s

Time = 5.965
Courant Number mean: 0.209365 max: 0.457374
DILUPBiCG:  Solving for T, Initial residual = 0.00470116, Final residual = 8.74128e-11, No Iterations 3
DILUPBiCG:  Solving for T, Initial residual = 3.23229e-05, Final residual = 1.83219e-10, No Iterations 2
DILUPBiCG:  Solving for T, Initial residual = 6.75667e-07, Final residual = 2.66783e-09, No Iterations 1
DILUPBiCG:  Solving for T, Initial residual = 2.84216e-08, Final residual = 2.51726e-10, No Iterations 1
 T goes from min(T) [0 0 0 0 0 0 0] -0.102433 to max(T) [0 0 0 0 0 0 0] 0.832951

ExecutionTime = 1264.94 s  ClockTime = 5409 s

Time = 5.9675
Courant Number mean: 0.209422 max: 0.456879
DILUPBiCG:  Solving for T, Initial residual = 0.00471077, Final residual = 8.76615e-11, No Iterations 3
DILUPBiCG:  Solving for T, Initial residual = 3.24513e-05, Final residual = 1.77969e-10, No Iterations 2
DILUPBiCG:  Solving for T, Initial residual = 6.78813e-07, Final residual = 2.64146e-09, No Iterations 1
DILUPBiCG:  Solving for T, Initial residual = 2.8445e-08, Final residual = 2.50744e-10, No Iterations 1
 T goes from min(T) [0 0 0 0 0 0 0] -0.102432 to max(T) [0 0 0 0 0 0 0] 0.833079

ExecutionTime = 1265.46 s  ClockTime = 5410 s

Time = 5.97
Courant Number mean: 0.209478 max: 0.456377
DILUPBiCG:  Solving for T, Initial residual = 0.00471955, Final residual = 8.81237e-11, No Iterations 3
DILUPBiCG:  Solving for T, Initial residual = 3.25854e-05, Final residual = 1.73547e-10, No Iterations 2
DILUPBiCG:  Solving for T, Initial residual = 6.81742e-07, Final residual = 2.62082e-09, No Iterations 1
DILUPBiCG:  Solving for T, Initial residual = 2.8449e-08, Final residual = 2.49315e-10, No Iterations 1
 T goes from min(T) [0 0 0 0 0 0 0] -0.102855 to max(T) [0 0 0 0 0 0 0] 0.833179

ExecutionTime = 1265.98 s  ClockTime = 5410 s

Time = 5.9725
Courant Number mean: 0.209534 max: 0.455869
DILUPBiCG:  Solving for T, Initial residual = 0.00472764, Final residual = 8.85512e-11, No Iterations 3
DILUPBiCG:  Solving for T, Initial residual = 3.27195e-05, Final residual = 1.69688e-10, No Iterations 2
DILUPBiCG:  Solving for T, Initial residual = 6.84097e-07, Final residual = 2.59746e-09, No Iterations 1
DILUPBiCG:  Solving for T, Initial residual = 2.84868e-08, Final residual = 2.48587e-10, No Iterations 1
 T goes from min(T) [0 0 0 0 0 0 0] -0.103097 to max(T) [0 0 0 0 0 0 0] 0.833252

ExecutionTime = 1266.5 s  ClockTime = 5411 s

Time = 5.975
Courant Number mean: 0.209589 max: 0.455354
DILUPBiCG:  Solving for T, Initial residual = 0.00473579, Final residual = 8.89106e-11, No Iterations 3
DILUPBiCG:  Solving for T, Initial residual = 3.28319e-05, Final residual = 1.66297e-10, No Iterations 2
DILUPBiCG:  Solving for T, Initial residual = 6.86867e-07, Final residual = 2.57246e-09, No Iterations 1
DILUPBiCG:  Solving for T, Initial residual = 2.85432e-08, Final residual = 2.48042e-10, No Iterations 1
 T goes from min(T) [0 0 0 0 0 0 0] -0.103213 to max(T) [0 0 0 0 0 0 0] 0.833298

ExecutionTime = 1267.03 s  ClockTime = 5411 s

Time = 5.9775
Courant Number mean: 0.209644 max: 0.454832
DILUPBiCG:  Solving for T, Initial residual = 0.00474374, Final residual = 8.92919e-11, No Iterations 3
DILUPBiCG:  Solving for T, Initial residual = 3.29138e-05, Final residual = 1.63302e-10, No Iterations 2
DILUPBiCG:  Solving for T, Initial residual = 6.89944e-07, Final residual = 2.54352e-09, No Iterations 1
DILUPBiCG:  Solving for T, Initial residual = 2.85817e-08, Final residual = 2.47077e-10, No Iterations 1
 T goes from min(T) [0 0 0 0 0 0 0] -0.103217 to max(T) [0 0 0 0 0 0 0] 0.833319

ExecutionTime = 1267.59 s  ClockTime = 5412 s

Time = 5.98
Courant Number mean: 0.209698 max: 0.454305
DILUPBiCG:  Solving for T, Initial residual = 0.0047508, Final residual = 8.96265e-11, No Iterations 3
DILUPBiCG:  Solving for T, Initial residual = 3.30291e-05, Final residual = 1.60639e-10, No Iterations 2
DILUPBiCG:  Solving for T, Initial residual = 6.93248e-07, Final residual = 2.51326e-09, No Iterations 1
DILUPBiCG:  Solving for T, Initial residual = 2.86042e-08, Final residual = 2.46399e-10, No Iterations 1
 T goes from min(T) [0 0 0 0 0 0 0] -0.103063 to max(T) [0 0 0 0 0 0 0] 0.833314

ExecutionTime = 1268.12 s  ClockTime = 5413 s

Time = 5.9825
Courant Number mean: 0.209752 max: 0.453771
DILUPBiCG:  Solving for T, Initial residual = 0.00475916, Final residual = 8.99083e-11, No Iterations 3
DILUPBiCG:  Solving for T, Initial residual = 3.3156e-05, Final residual = 1.58293e-10, No Iterations 2
DILUPBiCG:  Solving for T, Initial residual = 6.96285e-07, Final residual = 2.49221e-09, No Iterations 1
DILUPBiCG:  Solving for T, Initial residual = 2.86512e-08, Final residual = 2.4637e-10, No Iterations 1
 T goes from min(T) [0 0 0 0 0 0 0] -0.102892 to max(T) [0 0 0 0 0 0 0] 0.833286

ExecutionTime = 1268.63 s  ClockTime = 5413 s

Time = 5.985
Courant Number mean: 0.209806 max: 0.45323
DILUPBiCG:  Solving for T, Initial residual = 0.00476689, Final residual = 9.0138e-11, No Iterations 3
DILUPBiCG:  Solving for T, Initial residual = 3.3295e-05, Final residual = 1.56132e-10, No Iterations 2
DILUPBiCG:  Solving for T, Initial residual = 6.99524e-07, Final residual = 2.46864e-09, No Iterations 1
DILUPBiCG:  Solving for T, Initial residual = 2.86758e-08, Final residual = 2.45809e-10, No Iterations 1
 T goes from min(T) [0 0 0 0 0 0 0] -0.102511 to max(T) [0 0 0 0 0 0 0] 0.833234

ExecutionTime = 1269.13 s  ClockTime = 5414 s

Time = 5.9875
Courant Number mean: 0.209858 max: 0.452721
DILUPBiCG:  Solving for T, Initial residual = 0.00477423, Final residual = 9.03024e-11, No Iterations 3
DILUPBiCG:  Solving for T, Initial residual = 3.34146e-05, Final residual = 1.54107e-10, No Iterations 2
DILUPBiCG:  Solving for T, Initial residual = 7.02798e-07, Final residual = 2.44302e-09, No Iterations 1
DILUPBiCG:  Solving for T, Initial residual = 2.86571e-08, Final residual = 2.44768e-10, No Iterations 1
 T goes from min(T) [0 0 0 0 0 0 0] -0.102217 to max(T) [0 0 0 0 0 0 0] 0.833159

ExecutionTime = 1269.6 s  ClockTime = 5414 s

Time = 5.99
Courant Number mean: 0.209909 max: 0.452234
DILUPBiCG:  Solving for T, Initial residual = 0.00478336, Final residual = 9.04225e-11, No Iterations 3
DILUPBiCG:  Solving for T, Initial residual = 3.35273e-05, Final residual = 1.52379e-10, No Iterations 2
DILUPBiCG:  Solving for T, Initial residual = 7.05611e-07, Final residual = 2.41397e-09, No Iterations 1
DILUPBiCG:  Solving for T, Initial residual = 2.86683e-08, Final residual = 2.43645e-10, No Iterations 1
 T goes from min(T) [0 0 0 0 0 0 0] -0.102431 to max(T) [0 0 0 0 0 0 0] 0.833111

ExecutionTime = 1270.12 s  ClockTime = 5415 s

Time = 5.9925
Courant Number mean: 0.20996 max: 0.45174
DILUPBiCG:  Solving for T, Initial residual = 0.00479226, Final residual = 9.04719e-11, No Iterations 3
DILUPBiCG:  Solving for T, Initial residual = 3.3644e-05, Final residual = 1.50893e-10, No Iterations 2
DILUPBiCG:  Solving for T, Initial residual = 7.07784e-07, Final residual = 2.38254e-09, No Iterations 1
DILUPBiCG:  Solving for T, Initial residual = 2.87214e-08, Final residual = 2.42524e-10, No Iterations 1
 T goes from min(T) [0 0 0 0 0 0 0] -0.102793 to max(T) [0 0 0 0 0 0 0] 0.833063

ExecutionTime = 1270.66 s  ClockTime = 5415 s

Time = 5.995
Courant Number mean: 0.21001 max: 0.451239
DILUPBiCG:  Solving for T, Initial residual = 0.00480077, Final residual = 9.04707e-11, No Iterations 3
DILUPBiCG:  Solving for T, Initial residual = 3.37482e-05, Final residual = 1.495e-10, No Iterations 2
DILUPBiCG:  Solving for T, Initial residual = 7.10355e-07, Final residual = 2.3503e-09, No Iterations 1
DILUPBiCG:  Solving for T, Initial residual = 2.8773e-08, Final residual = 2.42529e-10, No Iterations 1
 T goes from min(T) [0 0 0 0 0 0 0] -0.102943 to max(T) [0 0 0 0 0 0 0] 0.832987

ExecutionTime = 1271.21 s  ClockTime = 5416 s

Time = 5.9975
Courant Number mean: 0.210059 max: 0.450732
DILUPBiCG:  Solving for T, Initial residual = 0.00480811, Final residual = 9.04024e-11, No Iterations 3
DILUPBiCG:  Solving for T, Initial residual = 3.38678e-05, Final residual = 1.48204e-10, No Iterations 2
DILUPBiCG:  Solving for T, Initial residual = 7.13137e-07, Final residual = 2.3203e-09, No Iterations 1
DILUPBiCG:  Solving for T, Initial residual = 2.88233e-08, Final residual = 2.42229e-10, No Iterations 1
 T goes from min(T) [0 0 0 0 0 0 0] -0.103048 to max(T) [0 0 0 0 0 0 0] 0.832883

ExecutionTime = 1271.74 s  ClockTime = 5416 s

Time = 6
Courant Number mean: 0.210109 max: 0.450219
DILUPBiCG:  Solving for T, Initial residual = 0.00481526, Final residual = 9.02798e-11, No Iterations 3
DILUPBiCG:  Solving for T, Initial residual = 3.3988e-05, Final residual = 1.46975e-10, No Iterations 2
DILUPBiCG:  Solving for T, Initial residual = 7.1599e-07, Final residual = 2.29796e-09, No Iterations 1
DILUPBiCG:  Solving for T, Initial residual = 2.88676e-08, Final residual = 2.41509e-10, No Iterations 1
 T goes from min(T) [0 0 0 0 0 0 0] -0.102996 to max(T) [0 0 0 0 0 0 0] 0.832752

ExecutionTime = 1272.32 s  ClockTime = 5417 s

End

