/*---------------------------------------------------------------------------*\
| =========                 |                                                 |
| \\      /  F ield         | OpenFOAM: The Open Source CFD Toolbox           |
|  \\    /   O peration     | Version:  dev                                   |
|   \\  /    A nd           | Web:      www.OpenFOAM.org                      |
|    \\/     M anipulation  |                                                 |
\*---------------------------------------------------------------------------*/
Build  : dev-90f39e0d894d
Exec   : scalarDeformationWithGhosts explicit -case orthogonal/120x60/c05_explicit
Date   : May 23 2017
Time   : 20:31:10
Host   : "sws02hw.private.rdg.ac.uk"
PID    : 22898
Case   : orthogonal/120x60/c05_explicit
nProcs : 1
sigFpe : Enabling floating point exception trapping (FOAM_SIGFPE).
fileModificationChecking : Monitoring run-time modified files using timeStampMaster (fileModificationSkew 10)
allowSystemOperations : Allowing user-supplied system call operations

// * * * * * * * * * * * * * * * * * * * * * * * * * * * * * * * * * * * * * //
Create time

Create mesh for time = 0

Reading field T

Reading fields phi (compulsory), U and Uf (optional)

Calculating owner stencils
Calculating neighbour stencils

Calculating scalar transport

Courant Number mean: 0.187253 max: 0.367645
Time = 0.005
Courant Number mean: 0.187248 max: 0.367685
diagonal:  Solving for T, Initial residual = 0, Final residual = 0, No Iterations 0
diagonal:  Solving for T, Initial residual = 0, Final residual = 0, No Iterations 0
diagonal:  Solving for T, Initial residual = 0, Final residual = 0, No Iterations 0
diagonal:  Solving for T, Initial residual = 0, Final residual = 0, No Iterations 0
 T goes from min(T) [0 0 0 0 0 0 0] 1.43649e-20 to max(T) [0 0 0 0 0 0 0] 0.951445

ExecutionTime = 2.07 s  ClockTime = 14 s

Time = 0.01
Courant Number mean: 0.187233 max: 0.367697
diagonal:  Solving for T, Initial residual = 0, Final residual = 0, No Iterations 0
diagonal:  Solving for T, Initial residual = 0, Final residual = 0, No Iterations 0
diagonal:  Solving for T, Initial residual = 0, Final residual = 0, No Iterations 0
diagonal:  Solving for T, Initial residual = 0, Final residual = 0, No Iterations 0
 T goes from min(T) [0 0 0 0 0 0 0] 1.33082e-20 to max(T) [0 0 0 0 0 0 0] 0.953227

ExecutionTime = 2.19 s  ClockTime = 15 s

Time = 0.015
Courant Number mean: 0.187205 max: 0.367681
diagonal:  Solving for T, Initial residual = 0, Final residual = 0, No Iterations 0
diagonal:  Solving for T, Initial residual = 0, Final residual = 0, No Iterations 0
diagonal:  Solving for T, Initial residual = 0, Final residual = 0, No Iterations 0
diagonal:  Solving for T, Initial residual = 0, Final residual = 0, No Iterations 0
 T goes from min(T) [0 0 0 0 0 0 0] 1.3052e-20 to max(T) [0 0 0 0 0 0 0] 0.95397

ExecutionTime = 2.31 s  ClockTime = 16 s

Time = 0.02
Courant Number mean: 0.187168 max: 0.367637
diagonal:  Solving for T, Initial residual = 0, Final residual = 0, No Iterations 0
diagonal:  Solving for T, Initial residual = 0, Final residual = 0, No Iterations 0
diagonal:  Solving for T, Initial residual = 0, Final residual = 0, No Iterations 0
diagonal:  Solving for T, Initial residual = 0, Final residual = 0, No Iterations 0
 T goes from min(T) [0 0 0 0 0 0 0] 1.36232e-20 to max(T) [0 0 0 0 0 0 0] 0.953632

ExecutionTime = 2.43 s  ClockTime = 18 s

Time = 0.025
Courant Number mean: 0.187188 max: 0.367653
diagonal:  Solving for T, Initial residual = 0, Final residual = 0, No Iterations 0
diagonal:  Solving for T, Initial residual = 0, Final residual = 0, No Iterations 0
diagonal:  Solving for T, Initial residual = 0, Final residual = 0, No Iterations 0
diagonal:  Solving for T, Initial residual = 0, Final residual = 0, No Iterations 0
 T goes from min(T) [0 0 0 0 0 0 0] 1.50759e-20 to max(T) [0 0 0 0 0 0 0] 0.952737

ExecutionTime = 2.55 s  ClockTime = 19 s

Time = 0.03
Courant Number mean: 0.187211 max: 0.367658
diagonal:  Solving for T, Initial residual = 0, Final residual = 0, No Iterations 0
diagonal:  Solving for T, Initial residual = 0, Final residual = 0, No Iterations 0
diagonal:  Solving for T, Initial residual = 0, Final residual = 0, No Iterations 0
diagonal:  Solving for T, Initial residual = 0, Final residual = 0, No Iterations 0
 T goes from min(T) [0 0 0 0 0 0 0] 1.74937e-20 to max(T) [0 0 0 0 0 0 0] 0.950916

ExecutionTime = 2.67 s  ClockTime = 21 s

Time = 0.035
Courant Number mean: 0.187224 max: 0.367635
diagonal:  Solving for T, Initial residual = 0, Final residual = 0, No Iterations 0
diagonal:  Solving for T, Initial residual = 0, Final residual = 0, No Iterations 0
diagonal:  Solving for T, Initial residual = 0, Final residual = 0, No Iterations 0
diagonal:  Solving for T, Initial residual = 0, Final residual = 0, No Iterations 0
 T goes from min(T) [0 0 0 0 0 0 0] 2.0126e-20 to max(T) [0 0 0 0 0 0 0] 0.951245

ExecutionTime = 2.79 s  ClockTime = 23 s

Time = 0.04
Courant Number mean: 0.187224 max: 0.367583
diagonal:  Solving for T, Initial residual = 0, Final residual = 0, No Iterations 0
diagonal:  Solving for T, Initial residual = 0, Final residual = 0, No Iterations 0
diagonal:  Solving for T, Initial residual = 0, Final residual = 0, No Iterations 0
diagonal:  Solving for T, Initial residual = 0, Final residual = 0, No Iterations 0
 T goes from min(T) [0 0 0 0 0 0 0] 1.85004e-20 to max(T) [0 0 0 0 0 0 0] 0.951416

ExecutionTime = 2.94 s  ClockTime = 25 s

Time = 0.045
Courant Number mean: 0.187215 max: 0.367576
diagonal:  Solving for T, Initial residual = 0, Final residual = 0, No Iterations 0
diagonal:  Solving for T, Initial residual = 0, Final residual = 0, No Iterations 0
diagonal:  Solving for T, Initial residual = 0, Final residual = 0, No Iterations 0
diagonal:  Solving for T, Initial residual = 0, Final residual = 0, No Iterations 0
 T goes from min(T) [0 0 0 0 0 0 0] 1.77946e-20 to max(T) [0 0 0 0 0 0 0] 0.952222

ExecutionTime = 3.08 s  ClockTime = 27 s

Time = 0.05
Courant Number mean: 0.187196 max: 0.367578
diagonal:  Solving for T, Initial residual = 0, Final residual = 0, No Iterations 0
diagonal:  Solving for T, Initial residual = 0, Final residual = 0, No Iterations 0
diagonal:  Solving for T, Initial residual = 0, Final residual = 0, No Iterations 0
diagonal:  Solving for T, Initial residual = 0, Final residual = 0, No Iterations 0
 T goes from min(T) [0 0 0 0 0 0 0] 1.80202e-20 to max(T) [0 0 0 0 0 0 0] 0.953022

ExecutionTime = 3.24 s  ClockTime = 30 s

Time = 0.055
Courant Number mean: 0.187165 max: 0.367551
diagonal:  Solving for T, Initial residual = 0, Final residual = 0, No Iterations 0
diagonal:  Solving for T, Initial residual = 0, Final residual = 0, No Iterations 0
diagonal:  Solving for T, Initial residual = 0, Final residual = 0, No Iterations 0
diagonal:  Solving for T, Initial residual = 0, Final residual = 0, No Iterations 0
 T goes from min(T) [0 0 0 0 0 0 0] 1.92161e-20 to max(T) [0 0 0 0 0 0 0] 0.952681

ExecutionTime = 3.37 s  ClockTime = 33 s

Time = 0.06
Courant Number mean: 0.187123 max: 0.367496
diagonal:  Solving for T, Initial residual = 0, Final residual = 0, No Iterations 0
diagonal:  Solving for T, Initial residual = 0, Final residual = 0, No Iterations 0
diagonal:  Solving for T, Initial residual = 0, Final residual = 0, No Iterations 0
diagonal:  Solving for T, Initial residual = 0, Final residual = 0, No Iterations 0
 T goes from min(T) [0 0 0 0 0 0 0] 2.14497e-20 to max(T) [0 0 0 0 0 0 0] 0.95116

ExecutionTime = 3.5 s  ClockTime = 35 s

Time = 0.065
Courant Number mean: 0.187112 max: 0.367465
diagonal:  Solving for T, Initial residual = 0, Final residual = 0, No Iterations 0
diagonal:  Solving for T, Initial residual = 0, Final residual = 0, No Iterations 0
diagonal:  Solving for T, Initial residual = 0, Final residual = 0, No Iterations 0
diagonal:  Solving for T, Initial residual = 0, Final residual = 0, No Iterations 0
 T goes from min(T) [0 0 0 0 0 0 0] 2.48189e-20 to max(T) [0 0 0 0 0 0 0] 0.952082

ExecutionTime = 3.65 s  ClockTime = 38 s

Time = 0.07
Courant Number mean: 0.187132 max: 0.367459
diagonal:  Solving for T, Initial residual = 0, Final residual = 0, No Iterations 0
diagonal:  Solving for T, Initial residual = 0, Final residual = 0, No Iterations 0
diagonal:  Solving for T, Initial residual = 0, Final residual = 0, No Iterations 0
diagonal:  Solving for T, Initial residual = 0, Final residual = 0, No Iterations 0
 T goes from min(T) [0 0 0 0 0 0 0] 2.49927e-20 to max(T) [0 0 0 0 0 0 0] 0.953106

ExecutionTime = 3.78 s  ClockTime = 41 s

Time = 0.075
Courant Number mean: 0.187141 max: 0.367425
diagonal:  Solving for T, Initial residual = 0, Final residual = 0, No Iterations 0
diagonal:  Solving for T, Initial residual = 0, Final residual = 0, No Iterations 0
diagonal:  Solving for T, Initial residual = 0, Final residual = 0, No Iterations 0
diagonal:  Solving for T, Initial residual = 0, Final residual = 0, No Iterations 0
 T goes from min(T) [0 0 0 0 0 0 0] 2.3606e-20 to max(T) [0 0 0 0 0 0 0] 0.952935

ExecutionTime = 3.91 s  ClockTime = 44 s

Time = 0.08
Courant Number mean: 0.187137 max: 0.367363
diagonal:  Solving for T, Initial residual = 0, Final residual = 0, No Iterations 0
diagonal:  Solving for T, Initial residual = 0, Final residual = 0, No Iterations 0
diagonal:  Solving for T, Initial residual = 0, Final residual = 0, No Iterations 0
diagonal:  Solving for T, Initial residual = 0, Final residual = 0, No Iterations 0
 T goes from min(T) [0 0 0 0 0 0 0] 2.32559e-20 to max(T) [0 0 0 0 0 0 0] 0.951952

ExecutionTime = 4.04 s  ClockTime = 47 s

Time = 0.085
Courant Number mean: 0.187124 max: 0.367308
diagonal:  Solving for T, Initial residual = 0, Final residual = 0, No Iterations 0
diagonal:  Solving for T, Initial residual = 0, Final residual = 0, No Iterations 0
diagonal:  Solving for T, Initial residual = 0, Final residual = 0, No Iterations 0
diagonal:  Solving for T, Initial residual = 0, Final residual = 0, No Iterations 0
 T goes from min(T) [0 0 0 0 0 0 0] 2.3955e-20 to max(T) [0 0 0 0 0 0 0] 0.95072

ExecutionTime = 4.19 s  ClockTime = 50 s

Time = 0.09
Courant Number mean: 0.187102 max: 0.367299
diagonal:  Solving for T, Initial residual = 0, Final residual = 0, No Iterations 0
diagonal:  Solving for T, Initial residual = 0, Final residual = 0, No Iterations 0
diagonal:  Solving for T, Initial residual = 0, Final residual = 0, No Iterations 0
diagonal:  Solving for T, Initial residual = 0, Final residual = 0, No Iterations 0
 T goes from min(T) [0 0 0 0 0 0 0] 2.57455e-20 to max(T) [0 0 0 0 0 0 0] 0.950594

ExecutionTime = 4.32 s  ClockTime = 53 s

Time = 0.095
Courant Number mean: 0.187067 max: 0.367261
diagonal:  Solving for T, Initial residual = 0, Final residual = 0, No Iterations 0
diagonal:  Solving for T, Initial residual = 0, Final residual = 0, No Iterations 0
diagonal:  Solving for T, Initial residual = 0, Final residual = 0, No Iterations 0
diagonal:  Solving for T, Initial residual = 0, Final residual = 0, No Iterations 0
 T goes from min(T) [0 0 0 0 0 0 0] 2.86992e-20 to max(T) [0 0 0 0 0 0 0] 0.951906

ExecutionTime = 4.45 s  ClockTime = 56 s

Time = 0.1
Courant Number mean: 0.187021 max: 0.367195
diagonal:  Solving for T, Initial residual = 0, Final residual = 0, No Iterations 0
diagonal:  Solving for T, Initial residual = 0, Final residual = 0, No Iterations 0
diagonal:  Solving for T, Initial residual = 0, Final residual = 0, No Iterations 0
diagonal:  Solving for T, Initial residual = 0, Final residual = 0, No Iterations 0
 T goes from min(T) [0 0 0 0 0 0 0] 3.26874e-20 to max(T) [0 0 0 0 0 0 0] 0.953306

ExecutionTime = 4.58 s  ClockTime = 58 s

Time = 0.105
Courant Number mean: 0.186979 max: 0.367118
diagonal:  Solving for T, Initial residual = 0, Final residual = 0, No Iterations 0
diagonal:  Solving for T, Initial residual = 0, Final residual = 0, No Iterations 0
diagonal:  Solving for T, Initial residual = 0, Final residual = 0, No Iterations 0
diagonal:  Solving for T, Initial residual = 0, Final residual = 0, No Iterations 0
 T goes from min(T) [0 0 0 0 0 0 0] 3.02691e-20 to max(T) [0 0 0 0 0 0 0] 0.95383

ExecutionTime = 4.71 s  ClockTime = 61 s

Time = 0.11
Courant Number mean: 0.186995 max: 0.367101
diagonal:  Solving for T, Initial residual = 0, Final residual = 0, No Iterations 0
diagonal:  Solving for T, Initial residual = 0, Final residual = 0, No Iterations 0
diagonal:  Solving for T, Initial residual = 0, Final residual = 0, No Iterations 0
diagonal:  Solving for T, Initial residual = 0, Final residual = 0, No Iterations 0
 T goes from min(T) [0 0 0 0 0 0 0] 2.90219e-20 to max(T) [0 0 0 0 0 0 0] 0.953811

ExecutionTime = 4.83 s  ClockTime = 64 s

Time = 0.115
Courant Number mean: 0.187 max: 0.367056
diagonal:  Solving for T, Initial residual = 0, Final residual = 0, No Iterations 0
diagonal:  Solving for T, Initial residual = 0, Final residual = 0, No Iterations 0
diagonal:  Solving for T, Initial residual = 0, Final residual = 0, No Iterations 0
diagonal:  Solving for T, Initial residual = 0, Final residual = 0, No Iterations 0
 T goes from min(T) [0 0 0 0 0 0 0] 2.8922e-20 to max(T) [0 0 0 0 0 0 0] 0.952672

ExecutionTime = 4.96 s  ClockTime = 66 s

Time = 0.12
Courant Number mean: 0.186994 max: 0.366983
diagonal:  Solving for T, Initial residual = 0, Final residual = 0, No Iterations 0
diagonal:  Solving for T, Initial residual = 0, Final residual = 0, No Iterations 0
diagonal:  Solving for T, Initial residual = 0, Final residual = 0, No Iterations 0
diagonal:  Solving for T, Initial residual = 0, Final residual = 0, No Iterations 0
 T goes from min(T) [0 0 0 0 0 0 0] 2.99772e-20 to max(T) [0 0 0 0 0 0 0] 0.95051

ExecutionTime = 5.09 s  ClockTime = 69 s

Time = 0.125
Courant Number mean: 0.186976 max: 0.366881
diagonal:  Solving for T, Initial residual = 0, Final residual = 0, No Iterations 0
diagonal:  Solving for T, Initial residual = 0, Final residual = 0, No Iterations 0
diagonal:  Solving for T, Initial residual = 0, Final residual = 0, No Iterations 0
diagonal:  Solving for T, Initial residual = 0, Final residual = 0, No Iterations 0
 T goes from min(T) [0 0 0 0 0 0 0] 3.22262e-20 to max(T) [0 0 0 0 0 0 0] 0.951099

ExecutionTime = 5.21 s  ClockTime = 72 s

Time = 0.13
Courant Number mean: 0.186949 max: 0.366861
diagonal:  Solving for T, Initial residual = 0, Final residual = 0, No Iterations 0
diagonal:  Solving for T, Initial residual = 0, Final residual = 0, No Iterations 0
diagonal:  Solving for T, Initial residual = 0, Final residual = 0, No Iterations 0
diagonal:  Solving for T, Initial residual = 0, Final residual = 0, No Iterations 0
 T goes from min(T) [0 0 0 0 0 0 0] 3.57389e-20 to max(T) [0 0 0 0 0 0 0] 0.95293

ExecutionTime = 5.34 s  ClockTime = 74 s

Time = 0.135
Courant Number mean: 0.186912 max: 0.366812
diagonal:  Solving for T, Initial residual = 0, Final residual = 0, No Iterations 0
diagonal:  Solving for T, Initial residual = 0, Final residual = 0, No Iterations 0
diagonal:  Solving for T, Initial residual = 0, Final residual = 0, No Iterations 0
diagonal:  Solving for T, Initial residual = 0, Final residual = 0, No Iterations 0
 T goes from min(T) [0 0 0 0 0 0 0] 3.81201e-20 to max(T) [0 0 0 0 0 0 0] 0.953924

ExecutionTime = 5.46 s  ClockTime = 77 s

Time = 0.14
Courant Number mean: 0.186862 max: 0.366735
diagonal:  Solving for T, Initial residual = 0, Final residual = 0, No Iterations 0
diagonal:  Solving for T, Initial residual = 0, Final residual = 0, No Iterations 0
diagonal:  Solving for T, Initial residual = 0, Final residual = 0, No Iterations 0
diagonal:  Solving for T, Initial residual = 0, Final residual = 0, No Iterations 0
 T goes from min(T) [0 0 0 0 0 0 0] 3.56167e-20 to max(T) [0 0 0 0 0 0 0] 0.954112

ExecutionTime = 5.59 s  ClockTime = 80 s

Time = 0.145
Courant Number mean: 0.186803 max: 0.36663
diagonal:  Solving for T, Initial residual = 0, Final residual = 0, No Iterations 0
diagonal:  Solving for T, Initial residual = 0, Final residual = 0, No Iterations 0
diagonal:  Solving for T, Initial residual = 0, Final residual = 0, No Iterations 0
diagonal:  Solving for T, Initial residual = 0, Final residual = 0, No Iterations 0
 T goes from min(T) [0 0 0 0 0 0 0] 3.43986e-20 to max(T) [0 0 0 0 0 0 0] 0.953532

ExecutionTime = 5.72 s  ClockTime = 82 s

Time = 0.15
Courant Number mean: 0.186801 max: 0.366584
diagonal:  Solving for T, Initial residual = 0, Final residual = 0, No Iterations 0
diagonal:  Solving for T, Initial residual = 0, Final residual = 0, No Iterations 0
diagonal:  Solving for T, Initial residual = 0, Final residual = 0, No Iterations 0
diagonal:  Solving for T, Initial residual = 0, Final residual = 0, No Iterations 0
 T goes from min(T) [0 0 0 0 0 0 0] 3.44307e-20 to max(T) [0 0 0 0 0 0 0] 0.952422

ExecutionTime = 5.86 s  ClockTime = 85 s

Time = 0.155
Courant Number mean: 0.186802 max: 0.366528
diagonal:  Solving for T, Initial residual = 0, Final residual = 0, No Iterations 0
diagonal:  Solving for T, Initial residual = 0, Final residual = 0, No Iterations 0
diagonal:  Solving for T, Initial residual = 0, Final residual = 0, No Iterations 0
diagonal:  Solving for T, Initial residual = 0, Final residual = 0, No Iterations 0
 T goes from min(T) [0 0 0 0 0 0 0] 3.57115e-20 to max(T) [0 0 0 0 0 0 0] 0.950528

ExecutionTime = 5.98 s  ClockTime = 88 s

Time = 0.16
Courant Number mean: 0.186792 max: 0.366444
diagonal:  Solving for T, Initial residual = 0, Final residual = 0, No Iterations 0
diagonal:  Solving for T, Initial residual = 0, Final residual = 0, No Iterations 0
diagonal:  Solving for T, Initial residual = 0, Final residual = 0, No Iterations 0
diagonal:  Solving for T, Initial residual = 0, Final residual = 0, No Iterations 0
 T goes from min(T) [0 0 0 0 0 0 0] 3.82716e-20 to max(T) [0 0 0 0 0 0 0] 0.952134

ExecutionTime = 6.11 s  ClockTime = 90 s

Time = 0.165
Courant Number mean: 0.186771 max: 0.366332
diagonal:  Solving for T, Initial residual = 0, Final residual = 0, No Iterations 0
diagonal:  Solving for T, Initial residual = 0, Final residual = 0, No Iterations 0
diagonal:  Solving for T, Initial residual = 0, Final residual = 0, No Iterations 0
diagonal:  Solving for T, Initial residual = 0, Final residual = 0, No Iterations 0
 T goes from min(T) [0 0 0 0 0 0 0] 4.21736e-20 to max(T) [0 0 0 0 0 0 0] 0.953521

ExecutionTime = 6.23 s  ClockTime = 93 s

Time = 0.17
Courant Number mean: 0.18674 max: 0.366264
diagonal:  Solving for T, Initial residual = 0, Final residual = 0, No Iterations 0
diagonal:  Solving for T, Initial residual = 0, Final residual = 0, No Iterations 0
diagonal:  Solving for T, Initial residual = 0, Final residual = 0, No Iterations 0
diagonal:  Solving for T, Initial residual = 0, Final residual = 0, No Iterations 0
 T goes from min(T) [0 0 0 0 0 0 0] 4.36447e-20 to max(T) [0 0 0 0 0 0 0] 0.95414

ExecutionTime = 6.35 s  ClockTime = 96 s

Time = 0.175
Courant Number mean: 0.186698 max: 0.366204
diagonal:  Solving for T, Initial residual = 0, Final residual = 0, No Iterations 0
diagonal:  Solving for T, Initial residual = 0, Final residual = 0, No Iterations 0
diagonal:  Solving for T, Initial residual = 0, Final residual = 0, No Iterations 0
diagonal:  Solving for T, Initial residual = 0, Final residual = 0, No Iterations 0
 T goes from min(T) [0 0 0 0 0 0 0] 4.09522e-20 to max(T) [0 0 0 0 0 0 0] 0.954025

ExecutionTime = 6.48 s  ClockTime = 98 s

Time = 0.18
Courant Number mean: 0.186646 max: 0.366116
diagonal:  Solving for T, Initial residual = 0, Final residual = 0, No Iterations 0
diagonal:  Solving for T, Initial residual = 0, Final residual = 0, No Iterations 0
diagonal:  Solving for T, Initial residual = 0, Final residual = 0, No Iterations 0
diagonal:  Solving for T, Initial residual = 0, Final residual = 0, No Iterations 0
 T goes from min(T) [0 0 0 0 0 0 0] 3.96574e-20 to max(T) [0 0 0 0 0 0 0] 0.953213

ExecutionTime = 6.6 s  ClockTime = 101 s

Time = 0.185
Courant Number mean: 0.186582 max: 0.366
diagonal:  Solving for T, Initial residual = 0, Final residual = 0, No Iterations 0
diagonal:  Solving for T, Initial residual = 0, Final residual = 0, No Iterations 0
diagonal:  Solving for T, Initial residual = 0, Final residual = 0, No Iterations 0
diagonal:  Solving for T, Initial residual = 0, Final residual = 0, No Iterations 0
 T goes from min(T) [0 0 0 0 0 0 0] 3.97102e-20 to max(T) [0 0 0 0 0 0 0] 0.951738

ExecutionTime = 6.73 s  ClockTime = 104 s

Time = 0.19
Courant Number mean: 0.18655 max: 0.365909
diagonal:  Solving for T, Initial residual = 0, Final residual = 0, No Iterations 0
diagonal:  Solving for T, Initial residual = 0, Final residual = 0, No Iterations 0
diagonal:  Solving for T, Initial residual = 0, Final residual = 0, No Iterations 0
diagonal:  Solving for T, Initial residual = 0, Final residual = 0, No Iterations 0
 T goes from min(T) [0 0 0 0 0 0 0] 4.10959e-20 to max(T) [0 0 0 0 0 0 0] 0.951105

ExecutionTime = 6.85 s  ClockTime = 106 s

Time = 0.195
Courant Number mean: 0.186547 max: 0.365842
diagonal:  Solving for T, Initial residual = 0, Final residual = 0, No Iterations 0
diagonal:  Solving for T, Initial residual = 0, Final residual = 0, No Iterations 0
diagonal:  Solving for T, Initial residual = 0, Final residual = 0, No Iterations 0
diagonal:  Solving for T, Initial residual = 0, Final residual = 0, No Iterations 0
 T goes from min(T) [0 0 0 0 0 0 0] 4.38329e-20 to max(T) [0 0 0 0 0 0 0] 0.952842

ExecutionTime = 6.98 s  ClockTime = 109 s

Time = 0.2
Courant Number mean: 0.186533 max: 0.365747
diagonal:  Solving for T, Initial residual = 0, Final residual = 0, No Iterations 0
diagonal:  Solving for T, Initial residual = 0, Final residual = 0, No Iterations 0
diagonal:  Solving for T, Initial residual = 0, Final residual = 0, No Iterations 0
diagonal:  Solving for T, Initial residual = 0, Final residual = 0, No Iterations 0
 T goes from min(T) [0 0 0 0 0 0 0] 4.79722e-20 to max(T) [0 0 0 0 0 0 0] 0.953848

ExecutionTime = 7.1 s  ClockTime = 111 s

Time = 0.205
Courant Number mean: 0.186508 max: 0.365624
diagonal:  Solving for T, Initial residual = 0, Final residual = 0, No Iterations 0
diagonal:  Solving for T, Initial residual = 0, Final residual = 0, No Iterations 0
diagonal:  Solving for T, Initial residual = 0, Final residual = 0, No Iterations 0
diagonal:  Solving for T, Initial residual = 0, Final residual = 0, No Iterations 0
 T goes from min(T) [0 0 0 0 0 0 0] 4.92909e-20 to max(T) [0 0 0 0 0 0 0] 0.954156

ExecutionTime = 7.23 s  ClockTime = 114 s

Time = 0.21
Courant Number mean: 0.186473 max: 0.365509
diagonal:  Solving for T, Initial residual = 0, Final residual = 0, No Iterations 0
diagonal:  Solving for T, Initial residual = 0, Final residual = 0, No Iterations 0
diagonal:  Solving for T, Initial residual = 0, Final residual = 0, No Iterations 0
diagonal:  Solving for T, Initial residual = 0, Final residual = 0, No Iterations 0
 T goes from min(T) [0 0 0 0 0 0 0] 4.63122e-20 to max(T) [0 0 0 0 0 0 0] 0.953798

ExecutionTime = 7.36 s  ClockTime = 117 s

Time = 0.215
Courant Number mean: 0.186428 max: 0.365438
diagonal:  Solving for T, Initial residual = 0, Final residual = 0, No Iterations 0
diagonal:  Solving for T, Initial residual = 0, Final residual = 0, No Iterations 0
diagonal:  Solving for T, Initial residual = 0, Final residual = 0, No Iterations 0
diagonal:  Solving for T, Initial residual = 0, Final residual = 0, No Iterations 0
 T goes from min(T) [0 0 0 0 0 0 0] 4.48443e-20 to max(T) [0 0 0 0 0 0 0] 0.952808

ExecutionTime = 7.49 s  ClockTime = 119 s

Time = 0.22
Courant Number mean: 0.186372 max: 0.365339
diagonal:  Solving for T, Initial residual = 0, Final residual = 0, No Iterations 0
diagonal:  Solving for T, Initial residual = 0, Final residual = 0, No Iterations 0
diagonal:  Solving for T, Initial residual = 0, Final residual = 0, No Iterations 0
diagonal:  Solving for T, Initial residual = 0, Final residual = 0, No Iterations 0
 T goes from min(T) [0 0 0 0 0 0 0] 4.48187e-20 to max(T) [0 0 0 0 0 0 0] 0.951222

ExecutionTime = 7.62 s  ClockTime = 122 s

Time = 0.225
Courant Number mean: 0.186305 max: 0.365212
diagonal:  Solving for T, Initial residual = 0, Final residual = 0, No Iterations 0
diagonal:  Solving for T, Initial residual = 0, Final residual = 0, No Iterations 0
diagonal:  Solving for T, Initial residual = 0, Final residual = 0, No Iterations 0
diagonal:  Solving for T, Initial residual = 0, Final residual = 0, No Iterations 0
 T goes from min(T) [0 0 0 0 0 0 0] 4.62039e-20 to max(T) [0 0 0 0 0 0 0] 0.951866

ExecutionTime = 7.77 s  ClockTime = 125 s

Time = 0.23
Courant Number mean: 0.186242 max: 0.365075
diagonal:  Solving for T, Initial residual = 0, Final residual = 0, No Iterations 0
diagonal:  Solving for T, Initial residual = 0, Final residual = 0, No Iterations 0
diagonal:  Solving for T, Initial residual = 0, Final residual = 0, No Iterations 0
diagonal:  Solving for T, Initial residual = 0, Final residual = 0, No Iterations 0
 T goes from min(T) [0 0 0 0 0 0 0] 4.9003e-20 to max(T) [0 0 0 0 0 0 0] 0.953248

ExecutionTime = 7.9 s  ClockTime = 128 s

Time = 0.235
Courant Number mean: 0.186235 max: 0.364997
diagonal:  Solving for T, Initial residual = 0, Final residual = 0, No Iterations 0
diagonal:  Solving for T, Initial residual = 0, Final residual = 0, No Iterations 0
diagonal:  Solving for T, Initial residual = 0, Final residual = 0, No Iterations 0
diagonal:  Solving for T, Initial residual = 0, Final residual = 0, No Iterations 0
 T goes from min(T) [0 0 0 0 0 0 0] 5.32525e-20 to max(T) [0 0 0 0 0 0 0] 0.953964

ExecutionTime = 8.05 s  ClockTime = 131 s

Time = 0.24
Courant Number mean: 0.186216 max: 0.364891
diagonal:  Solving for T, Initial residual = 0, Final residual = 0, No Iterations 0
diagonal:  Solving for T, Initial residual = 0, Final residual = 0, No Iterations 0
diagonal:  Solving for T, Initial residual = 0, Final residual = 0, No Iterations 0
diagonal:  Solving for T, Initial residual = 0, Final residual = 0, No Iterations 0
 T goes from min(T) [0 0 0 0 0 0 0] 5.51131e-20 to max(T) [0 0 0 0 0 0 0] 0.954045

ExecutionTime = 8.18 s  ClockTime = 134 s

Time = 0.245
Courant Number mean: 0.186189 max: 0.364757
diagonal:  Solving for T, Initial residual = 0, Final residual = 0, No Iterations 0
diagonal:  Solving for T, Initial residual = 0, Final residual = 0, No Iterations 0
diagonal:  Solving for T, Initial residual = 0, Final residual = 0, No Iterations 0
diagonal:  Solving for T, Initial residual = 0, Final residual = 0, No Iterations 0
 T goes from min(T) [0 0 0 0 0 0 0] 5.17539e-20 to max(T) [0 0 0 0 0 0 0] 0.953524

ExecutionTime = 8.3 s  ClockTime = 136 s

Time = 0.25
Courant Number mean: 0.18615 max: 0.364596
diagonal:  Solving for T, Initial residual = 0, Final residual = 0, No Iterations 0
diagonal:  Solving for T, Initial residual = 0, Final residual = 0, No Iterations 0
diagonal:  Solving for T, Initial residual = 0, Final residual = 0, No Iterations 0
diagonal:  Solving for T, Initial residual = 0, Final residual = 0, No Iterations 0
 T goes from min(T) [0 0 0 0 0 0 0] 5.00216e-20 to max(T) [0 0 0 0 0 0 0] 0.952432

ExecutionTime = 8.42 s  ClockTime = 139 s

Time = 0.255
Courant Number mean: 0.186101 max: 0.364514
diagonal:  Solving for T, Initial residual = 0, Final residual = 0, No Iterations 0
diagonal:  Solving for T, Initial residual = 0, Final residual = 0, No Iterations 0
diagonal:  Solving for T, Initial residual = 0, Final residual = 0, No Iterations 0
diagonal:  Solving for T, Initial residual = 0, Final residual = 0, No Iterations 0
 T goes from min(T) [0 0 0 0 0 0 0] 4.98261e-20 to max(T) [0 0 0 0 0 0 0] 0.950849

ExecutionTime = 8.55 s  ClockTime = 141 s

Time = 0.26
Courant Number mean: 0.186041 max: 0.364404
diagonal:  Solving for T, Initial residual = 0, Final residual = 0, No Iterations 0
diagonal:  Solving for T, Initial residual = 0, Final residual = 0, No Iterations 0
diagonal:  Solving for T, Initial residual = 0, Final residual = 0, No Iterations 0
diagonal:  Solving for T, Initial residual = 0, Final residual = 0, No Iterations 0
 T goes from min(T) [0 0 0 0 0 0 0] 5.11163e-20 to max(T) [0 0 0 0 0 0 0] 0.951959

ExecutionTime = 8.67 s  ClockTime = 143 s

Time = 0.265
Courant Number mean: 0.185971 max: 0.364267
diagonal:  Solving for T, Initial residual = 0, Final residual = 0, No Iterations 0
diagonal:  Solving for T, Initial residual = 0, Final residual = 0, No Iterations 0
diagonal:  Solving for T, Initial residual = 0, Final residual = 0, No Iterations 0
diagonal:  Solving for T, Initial residual = 0, Final residual = 0, No Iterations 0
 T goes from min(T) [0 0 0 0 0 0 0] 5.38776e-20 to max(T) [0 0 0 0 0 0 0] 0.9531

ExecutionTime = 8.79 s  ClockTime = 145 s

Time = 0.27
Courant Number mean: 0.185892 max: 0.364102
diagonal:  Solving for T, Initial residual = 0, Final residual = 0, No Iterations 0
diagonal:  Solving for T, Initial residual = 0, Final residual = 0, No Iterations 0
diagonal:  Solving for T, Initial residual = 0, Final residual = 0, No Iterations 0
diagonal:  Solving for T, Initial residual = 0, Final residual = 0, No Iterations 0
 T goes from min(T) [0 0 0 0 0 0 0] 5.81301e-20 to max(T) [0 0 0 0 0 0 0] 0.953635

ExecutionTime = 8.92 s  ClockTime = 147 s

Time = 0.275
Courant Number mean: 0.185867 max: 0.363995
diagonal:  Solving for T, Initial residual = 0, Final residual = 0, No Iterations 0
diagonal:  Solving for T, Initial residual = 0, Final residual = 0, No Iterations 0
diagonal:  Solving for T, Initial residual = 0, Final residual = 0, No Iterations 0
diagonal:  Solving for T, Initial residual = 0, Final residual = 0, No Iterations 0
 T goes from min(T) [0 0 0 0 0 0 0] 6.11503e-20 to max(T) [0 0 0 0 0 0 0] 0.953816

ExecutionTime = 9.06 s  ClockTime = 150 s

Time = 0.28
Courant Number mean: 0.185844 max: 0.363878
diagonal:  Solving for T, Initial residual = 0, Final residual = 0, No Iterations 0
diagonal:  Solving for T, Initial residual = 0, Final residual = 0, No Iterations 0
diagonal:  Solving for T, Initial residual = 0, Final residual = 0, No Iterations 0
diagonal:  Solving for T, Initial residual = 0, Final residual = 0, No Iterations 0
 T goes from min(T) [0 0 0 0 0 0 0] 5.73129e-20 to max(T) [0 0 0 0 0 0 0] 0.953001

ExecutionTime = 9.23 s  ClockTime = 153 s

Time = 0.285
Courant Number mean: 0.185812 max: 0.363734
diagonal:  Solving for T, Initial residual = 0, Final residual = 0, No Iterations 0
diagonal:  Solving for T, Initial residual = 0, Final residual = 0, No Iterations 0
diagonal:  Solving for T, Initial residual = 0, Final residual = 0, No Iterations 0
diagonal:  Solving for T, Initial residual = 0, Final residual = 0, No Iterations 0
 T goes from min(T) [0 0 0 0 0 0 0] 5.52238e-20 to max(T) [0 0 0 0 0 0 0] 0.951893

ExecutionTime = 9.36 s  ClockTime = 156 s

Time = 0.29
Courant Number mean: 0.185771 max: 0.363562
diagonal:  Solving for T, Initial residual = 0, Final residual = 0, No Iterations 0
diagonal:  Solving for T, Initial residual = 0, Final residual = 0, No Iterations 0
diagonal:  Solving for T, Initial residual = 0, Final residual = 0, No Iterations 0
diagonal:  Solving for T, Initial residual = 0, Final residual = 0, No Iterations 0
 T goes from min(T) [0 0 0 0 0 0 0] 5.47682e-20 to max(T) [0 0 0 0 0 0 0] 0.950297

ExecutionTime = 9.51 s  ClockTime = 161 s

Time = 0.295
Courant Number mean: 0.185718 max: 0.363433
diagonal:  Solving for T, Initial residual = 0, Final residual = 0, No Iterations 0
diagonal:  Solving for T, Initial residual = 0, Final residual = 0, No Iterations 0
diagonal:  Solving for T, Initial residual = 0, Final residual = 0, No Iterations 0
diagonal:  Solving for T, Initial residual = 0, Final residual = 0, No Iterations 0
 T goes from min(T) [0 0 0 0 0 0 0] 5.58734e-20 to max(T) [0 0 0 0 0 0 0] 0.951256

ExecutionTime = 9.63 s  ClockTime = 163 s

Time = 0.3
Courant Number mean: 0.185654 max: 0.363312
diagonal:  Solving for T, Initial residual = 0, Final residual = 0, No Iterations 0
diagonal:  Solving for T, Initial residual = 0, Final residual = 0, No Iterations 0
diagonal:  Solving for T, Initial residual = 0, Final residual = 0, No Iterations 0
diagonal:  Solving for T, Initial residual = 0, Final residual = 0, No Iterations 0
 T goes from min(T) [0 0 0 0 0 0 0] 5.85052e-20 to max(T) [0 0 0 0 0 0 0] 0.952752

ExecutionTime = 9.76 s  ClockTime = 166 s

Time = 0.305
Courant Number mean: 0.18558 max: 0.363164
diagonal:  Solving for T, Initial residual = 0, Final residual = 0, No Iterations 0
diagonal:  Solving for T, Initial residual = 0, Final residual = 0, No Iterations 0
diagonal:  Solving for T, Initial residual = 0, Final residual = 0, No Iterations 0
diagonal:  Solving for T, Initial residual = 0, Final residual = 0, No Iterations 0
 T goes from min(T) [0 0 0 0 0 0 0] 6.26662e-20 to max(T) [0 0 0 0 0 0 0] 0.952792

ExecutionTime = 9.88 s  ClockTime = 168 s

Time = 0.31
Courant Number mean: 0.185498 max: 0.362988
diagonal:  Solving for T, Initial residual = 0, Final residual = 0, No Iterations 0
diagonal:  Solving for T, Initial residual = 0, Final residual = 0, No Iterations 0
diagonal:  Solving for T, Initial residual = 0, Final residual = 0, No Iterations 0
diagonal:  Solving for T, Initial residual = 0, Final residual = 0, No Iterations 0
 T goes from min(T) [0 0 0 0 0 0 0] 6.74022e-20 to max(T) [0 0 0 0 0 0 0] 0.952064

ExecutionTime = 10.01 s  ClockTime = 171 s

Time = 0.315
Courant Number mean: 0.185444 max: 0.362836
diagonal:  Solving for T, Initial residual = 0, Final residual = 0, No Iterations 0
diagonal:  Solving for T, Initial residual = 0, Final residual = 0, No Iterations 0
diagonal:  Solving for T, Initial residual = 0, Final residual = 0, No Iterations 0
diagonal:  Solving for T, Initial residual = 0, Final residual = 0, No Iterations 0
 T goes from min(T) [0 0 0 0 0 0 0] 6.2979e-20 to max(T) [0 0 0 0 0 0 0] 0.952133

ExecutionTime = 10.14 s  ClockTime = 173 s

Time = 0.32
Courant Number mean: 0.185417 max: 0.362709
diagonal:  Solving for T, Initial residual = 0, Final residual = 0, No Iterations 0
diagonal:  Solving for T, Initial residual = 0, Final residual = 0, No Iterations 0
diagonal:  Solving for T, Initial residual = 0, Final residual = 0, No Iterations 0
diagonal:  Solving for T, Initial residual = 0, Final residual = 0, No Iterations 0
 T goes from min(T) [0 0 0 0 0 0 0] 6.04327e-20 to max(T) [0 0 0 0 0 0 0] 0.952554

ExecutionTime = 10.27 s  ClockTime = 176 s

Time = 0.325
Courant Number mean: 0.18538 max: 0.362553
diagonal:  Solving for T, Initial residual = 0, Final residual = 0, No Iterations 0
diagonal:  Solving for T, Initial residual = 0, Final residual = 0, No Iterations 0
diagonal:  Solving for T, Initial residual = 0, Final residual = 0, No Iterations 0
diagonal:  Solving for T, Initial residual = 0, Final residual = 0, No Iterations 0
 T goes from min(T) [0 0 0 0 0 0 0] 5.96213e-20 to max(T) [0 0 0 0 0 0 0] 0.951459

ExecutionTime = 10.4 s  ClockTime = 178 s

Time = 0.33
Courant Number mean: 0.185335 max: 0.36237
diagonal:  Solving for T, Initial residual = 0, Final residual = 0, No Iterations 0
diagonal:  Solving for T, Initial residual = 0, Final residual = 0, No Iterations 0
diagonal:  Solving for T, Initial residual = 0, Final residual = 0, No Iterations 0
diagonal:  Solving for T, Initial residual = 0, Final residual = 0, No Iterations 0
 T goes from min(T) [0 0 0 0 0 0 0] 6.04484e-20 to max(T) [0 0 0 0 0 0 0] 0.94989

ExecutionTime = 10.52 s  ClockTime = 180 s

Time = 0.335
Courant Number mean: 0.185279 max: 0.362195
diagonal:  Solving for T, Initial residual = 0, Final residual = 0, No Iterations 0
diagonal:  Solving for T, Initial residual = 0, Final residual = 0, No Iterations 0
diagonal:  Solving for T, Initial residual = 0, Final residual = 0, No Iterations 0
diagonal:  Solving for T, Initial residual = 0, Final residual = 0, No Iterations 0
 T goes from min(T) [0 0 0 0 0 0 0] 6.28591e-20 to max(T) [0 0 0 0 0 0 0] 0.950084

ExecutionTime = 10.65 s  ClockTime = 183 s

Time = 0.34
Courant Number mean: 0.185211 max: 0.362064
diagonal:  Solving for T, Initial residual = 0, Final residual = 0, No Iterations 0
diagonal:  Solving for T, Initial residual = 0, Final residual = 0, No Iterations 0
diagonal:  Solving for T, Initial residual = 0, Final residual = 0, No Iterations 0
diagonal:  Solving for T, Initial residual = 0, Final residual = 0, No Iterations 0
 T goes from min(T) [0 0 0 0 0 0 0] 6.68379e-20 to max(T) [0 0 0 0 0 0 0] 0.951387

ExecutionTime = 10.77 s  ClockTime = 185 s

Time = 0.345
Courant Number mean: 0.185135 max: 0.361905
diagonal:  Solving for T, Initial residual = 0, Final residual = 0, No Iterations 0
diagonal:  Solving for T, Initial residual = 0, Final residual = 0, No Iterations 0
diagonal:  Solving for T, Initial residual = 0, Final residual = 0, No Iterations 0
diagonal:  Solving for T, Initial residual = 0, Final residual = 0, No Iterations 0
 T goes from min(T) [0 0 0 0 0 0 0] 7.24066e-20 to max(T) [0 0 0 0 0 0 0] 0.95316

ExecutionTime = 10.9 s  ClockTime = 188 s

Time = 0.35
Courant Number mean: 0.185048 max: 0.361718
diagonal:  Solving for T, Initial residual = 0, Final residual = 0, No Iterations 0
diagonal:  Solving for T, Initial residual = 0, Final residual = 0, No Iterations 0
diagonal:  Solving for T, Initial residual = 0, Final residual = 0, No Iterations 0
diagonal:  Solving for T, Initial residual = 0, Final residual = 0, No Iterations 0
 T goes from min(T) [0 0 0 0 0 0 0] 6.87002e-20 to max(T) [0 0 0 0 0 0 0] 0.95352

ExecutionTime = 11.03 s  ClockTime = 190 s

Time = 0.355
Courant Number mean: 0.184964 max: 0.361522
diagonal:  Solving for T, Initial residual = 0, Final residual = 0, No Iterations 0
diagonal:  Solving for T, Initial residual = 0, Final residual = 0, No Iterations 0
diagonal:  Solving for T, Initial residual = 0, Final residual = 0, No Iterations 0
diagonal:  Solving for T, Initial residual = 0, Final residual = 0, No Iterations 0
 T goes from min(T) [0 0 0 0 0 0 0] 6.55832e-20 to max(T) [0 0 0 0 0 0 0] 0.952386

ExecutionTime = 11.15 s  ClockTime = 192 s

Time = 0.36
Courant Number mean: 0.184935 max: 0.361383
diagonal:  Solving for T, Initial residual = 0, Final residual = 0, No Iterations 0
diagonal:  Solving for T, Initial residual = 0, Final residual = 0, No Iterations 0
diagonal:  Solving for T, Initial residual = 0, Final residual = 0, No Iterations 0
diagonal:  Solving for T, Initial residual = 0, Final residual = 0, No Iterations 0
 T goes from min(T) [0 0 0 0 0 0 0] 6.43091e-20 to max(T) [0 0 0 0 0 0 0] 0.951467

ExecutionTime = 11.28 s  ClockTime = 195 s

Time = 0.365
Courant Number mean: 0.184894 max: 0.361217
diagonal:  Solving for T, Initial residual = 0, Final residual = 0, No Iterations 0
diagonal:  Solving for T, Initial residual = 0, Final residual = 0, No Iterations 0
diagonal:  Solving for T, Initial residual = 0, Final residual = 0, No Iterations 0
diagonal:  Solving for T, Initial residual = 0, Final residual = 0, No Iterations 0
 T goes from min(T) [0 0 0 0 0 0 0] -9.70561e-17 to max(T) [0 0 0 0 0 0 0] 0.950345

ExecutionTime = 11.41 s  ClockTime = 197 s

Time = 0.37
Courant Number mean: 0.184845 max: 0.361023
diagonal:  Solving for T, Initial residual = 0, Final residual = 0, No Iterations 0
diagonal:  Solving for T, Initial residual = 0, Final residual = 0, No Iterations 0
diagonal:  Solving for T, Initial residual = 0, Final residual = 0, No Iterations 0
diagonal:  Solving for T, Initial residual = 0, Final residual = 0, No Iterations 0
 T goes from min(T) [0 0 0 0 0 0 0] -2.01163e-16 to max(T) [0 0 0 0 0 0 0] 0.949563

ExecutionTime = 11.54 s  ClockTime = 200 s

Time = 0.375
Courant Number mean: 0.184784 max: 0.360802
diagonal:  Solving for T, Initial residual = 0, Final residual = 0, No Iterations 0
diagonal:  Solving for T, Initial residual = 0, Final residual = 0, No Iterations 0
diagonal:  Solving for T, Initial residual = 0, Final residual = 0, No Iterations 0
diagonal:  Solving for T, Initial residual = 0, Final residual = 0, No Iterations 0
 T goes from min(T) [0 0 0 0 0 0 0] -3.73382e-16 to max(T) [0 0 0 0 0 0 0] 0.9514

ExecutionTime = 11.66 s  ClockTime = 202 s

Time = 0.38
Courant Number mean: 0.184714 max: 0.36066
diagonal:  Solving for T, Initial residual = 0, Final residual = 0, No Iterations 0
diagonal:  Solving for T, Initial residual = 0, Final residual = 0, No Iterations 0
diagonal:  Solving for T, Initial residual = 0, Final residual = 0, No Iterations 0
diagonal:  Solving for T, Initial residual = 0, Final residual = 0, No Iterations 0
 T goes from min(T) [0 0 0 0 0 0 0] -6.50223e-16 to max(T) [0 0 0 0 0 0 0] 0.952541

ExecutionTime = 11.78 s  ClockTime = 204 s

Time = 0.385
Courant Number mean: 0.184635 max: 0.36049
diagonal:  Solving for T, Initial residual = 0, Final residual = 0, No Iterations 0
diagonal:  Solving for T, Initial residual = 0, Final residual = 0, No Iterations 0
diagonal:  Solving for T, Initial residual = 0, Final residual = 0, No Iterations 0
diagonal:  Solving for T, Initial residual = 0, Final residual = 0, No Iterations 0
 T goes from min(T) [0 0 0 0 0 0 0] -2.63155e-15 to max(T) [0 0 0 0 0 0 0] 0.95254

ExecutionTime = 11.92 s  ClockTime = 207 s

Time = 0.39
Courant Number mean: 0.184544 max: 0.360293
diagonal:  Solving for T, Initial residual = 0, Final residual = 0, No Iterations 0
diagonal:  Solving for T, Initial residual = 0, Final residual = 0, No Iterations 0
diagonal:  Solving for T, Initial residual = 0, Final residual = 0, No Iterations 0
diagonal:  Solving for T, Initial residual = 0, Final residual = 0, No Iterations 0
 T goes from min(T) [0 0 0 0 0 0 0] -5.35856e-15 to max(T) [0 0 0 0 0 0 0] 0.952588

ExecutionTime = 12.04 s  ClockTime = 209 s

Time = 0.395
Courant Number mean: 0.184443 max: 0.360069
diagonal:  Solving for T, Initial residual = 0, Final residual = 0, No Iterations 0
diagonal:  Solving for T, Initial residual = 0, Final residual = 0, No Iterations 0
diagonal:  Solving for T, Initial residual = 0, Final residual = 0, No Iterations 0
diagonal:  Solving for T, Initial residual = 0, Final residual = 0, No Iterations 0
 T goes from min(T) [0 0 0 0 0 0 0] -7.20875e-15 to max(T) [0 0 0 0 0 0 0] 0.952206

ExecutionTime = 12.18 s  ClockTime = 212 s

Time = 0.4
Courant Number mean: 0.184397 max: 0.359902
diagonal:  Solving for T, Initial residual = 0, Final residual = 0, No Iterations 0
diagonal:  Solving for T, Initial residual = 0, Final residual = 0, No Iterations 0
diagonal:  Solving for T, Initial residual = 0, Final residual = 0, No Iterations 0
diagonal:  Solving for T, Initial residual = 0, Final residual = 0, No Iterations 0
 T goes from min(T) [0 0 0 0 0 0 0] -9.20585e-15 to max(T) [0 0 0 0 0 0 0] 0.952107

ExecutionTime = 12.34 s  ClockTime = 215 s

Time = 0.405
Courant Number mean: 0.184355 max: 0.359725
diagonal:  Solving for T, Initial residual = 0, Final residual = 0, No Iterations 0
diagonal:  Solving for T, Initial residual = 0, Final residual = 0, No Iterations 0
diagonal:  Solving for T, Initial residual = 0, Final residual = 0, No Iterations 0
diagonal:  Solving for T, Initial residual = 0, Final residual = 0, No Iterations 0
 T goes from min(T) [0 0 0 0 0 0 0] -1.17113e-14 to max(T) [0 0 0 0 0 0 0] 0.950604

ExecutionTime = 12.47 s  ClockTime = 218 s

Time = 0.41
Courant Number mean: 0.1843 max: 0.359521
diagonal:  Solving for T, Initial residual = 0, Final residual = 0, No Iterations 0
diagonal:  Solving for T, Initial residual = 0, Final residual = 0, No Iterations 0
diagonal:  Solving for T, Initial residual = 0, Final residual = 0, No Iterations 0
diagonal:  Solving for T, Initial residual = 0, Final residual = 0, No Iterations 0
 T goes from min(T) [0 0 0 0 0 0 0] -1.42595e-14 to max(T) [0 0 0 0 0 0 0] 0.948731

ExecutionTime = 12.6 s  ClockTime = 220 s

Time = 0.415
Courant Number mean: 0.184236 max: 0.35929
diagonal:  Solving for T, Initial residual = 0, Final residual = 0, No Iterations 0
diagonal:  Solving for T, Initial residual = 0, Final residual = 0, No Iterations 0
diagonal:  Solving for T, Initial residual = 0, Final residual = 0, No Iterations 0
diagonal:  Solving for T, Initial residual = 0, Final residual = 0, No Iterations 0
 T goes from min(T) [0 0 0 0 0 0 0] -7.92649e-14 to max(T) [0 0 0 0 0 0 0] 0.950028

ExecutionTime = 12.72 s  ClockTime = 222 s

Time = 0.42
Courant Number mean: 0.184162 max: 0.359101
diagonal:  Solving for T, Initial residual = 0, Final residual = 0, No Iterations 0
diagonal:  Solving for T, Initial residual = 0, Final residual = 0, No Iterations 0
diagonal:  Solving for T, Initial residual = 0, Final residual = 0, No Iterations 0
diagonal:  Solving for T, Initial residual = 0, Final residual = 0, No Iterations 0
 T goes from min(T) [0 0 0 0 0 0 0] -1.50907e-13 to max(T) [0 0 0 0 0 0 0] 0.950129

ExecutionTime = 12.83 s  ClockTime = 224 s

Time = 0.425
Courant Number mean: 0.18408 max: 0.358921
diagonal:  Solving for T, Initial residual = 0, Final residual = 0, No Iterations 0
diagonal:  Solving for T, Initial residual = 0, Final residual = 0, No Iterations 0
diagonal:  Solving for T, Initial residual = 0, Final residual = 0, No Iterations 0
diagonal:  Solving for T, Initial residual = 0, Final residual = 0, No Iterations 0
 T goes from min(T) [0 0 0 0 0 0 0] -2.24042e-13 to max(T) [0 0 0 0 0 0 0] 0.950929

ExecutionTime = 12.96 s  ClockTime = 227 s

Time = 0.43
Courant Number mean: 0.183986 max: 0.358713
diagonal:  Solving for T, Initial residual = 0, Final residual = 0, No Iterations 0
diagonal:  Solving for T, Initial residual = 0, Final residual = 0, No Iterations 0
diagonal:  Solving for T, Initial residual = 0, Final residual = 0, No Iterations 0
diagonal:  Solving for T, Initial residual = 0, Final residual = 0, No Iterations 0
 T goes from min(T) [0 0 0 0 0 0 0] -3.17629e-13 to max(T) [0 0 0 0 0 0 0] 0.952415

ExecutionTime = 13.08 s  ClockTime = 229 s

Time = 0.435
Courant Number mean: 0.183882 max: 0.358478
diagonal:  Solving for T, Initial residual = 0, Final residual = 0, No Iterations 0
diagonal:  Solving for T, Initial residual = 0, Final residual = 0, No Iterations 0
diagonal:  Solving for T, Initial residual = 0, Final residual = 0, No Iterations 0
diagonal:  Solving for T, Initial residual = 0, Final residual = 0, No Iterations 0
 T goes from min(T) [0 0 0 0 0 0 0] -2.71838e-11 to max(T) [0 0 0 0 0 0 0] 0.952551

ExecutionTime = 13.19 s  ClockTime = 231 s

Time = 0.44
Courant Number mean: 0.183807 max: 0.358267
diagonal:  Solving for T, Initial residual = 0, Final residual = 0, No Iterations 0
diagonal:  Solving for T, Initial residual = 0, Final residual = 0, No Iterations 0
diagonal:  Solving for T, Initial residual = 0, Final residual = 0, No Iterations 0
diagonal:  Solving for T, Initial residual = 0, Final residual = 0, No Iterations 0
 T goes from min(T) [0 0 0 0 0 0 0] -5.782e-11 to max(T) [0 0 0 0 0 0 0] 0.95125

ExecutionTime = 13.32 s  ClockTime = 233 s

Time = 0.445
Courant Number mean: 0.18376 max: 0.358079
diagonal:  Solving for T, Initial residual = 0, Final residual = 0, No Iterations 0
diagonal:  Solving for T, Initial residual = 0, Final residual = 0, No Iterations 0
diagonal:  Solving for T, Initial residual = 0, Final residual = 0, No Iterations 0
diagonal:  Solving for T, Initial residual = 0, Final residual = 0, No Iterations 0
 T goes from min(T) [0 0 0 0 0 0 0] -3.18584e-10 to max(T) [0 0 0 0 0 0 0] 0.950141

ExecutionTime = 13.45 s  ClockTime = 236 s

Time = 0.45
Courant Number mean: 0.183702 max: 0.357864
diagonal:  Solving for T, Initial residual = 0, Final residual = 0, No Iterations 0
diagonal:  Solving for T, Initial residual = 0, Final residual = 0, No Iterations 0
diagonal:  Solving for T, Initial residual = 0, Final residual = 0, No Iterations 0
diagonal:  Solving for T, Initial residual = 0, Final residual = 0, No Iterations 0
 T goes from min(T) [0 0 0 0 0 0 0] -5.52528e-10 to max(T) [0 0 0 0 0 0 0] 0.949483

ExecutionTime = 13.58 s  ClockTime = 238 s

Time = 0.455
Courant Number mean: 0.183635 max: 0.357623
diagonal:  Solving for T, Initial residual = 0, Final residual = 0, No Iterations 0
diagonal:  Solving for T, Initial residual = 0, Final residual = 0, No Iterations 0
diagonal:  Solving for T, Initial residual = 0, Final residual = 0, No Iterations 0
diagonal:  Solving for T, Initial residual = 0, Final residual = 0, No Iterations 0
 T goes from min(T) [0 0 0 0 0 0 0] -7.21402e-10 to max(T) [0 0 0 0 0 0 0] 0.948572

ExecutionTime = 13.7 s  ClockTime = 240 s

Time = 0.46
Courant Number mean: 0.183557 max: 0.357389
diagonal:  Solving for T, Initial residual = 0, Final residual = 0, No Iterations 0
diagonal:  Solving for T, Initial residual = 0, Final residual = 0, No Iterations 0
diagonal:  Solving for T, Initial residual = 0, Final residual = 0, No Iterations 0
diagonal:  Solving for T, Initial residual = 0, Final residual = 0, No Iterations 0
 T goes from min(T) [0 0 0 0 0 0 0] -1.2928e-09 to max(T) [0 0 0 0 0 0 0] 0.947057

ExecutionTime = 13.82 s  ClockTime = 242 s

Time = 0.465
Courant Number mean: 0.183471 max: 0.357198
diagonal:  Solving for T, Initial residual = 0, Final residual = 0, No Iterations 0
diagonal:  Solving for T, Initial residual = 0, Final residual = 0, No Iterations 0
diagonal:  Solving for T, Initial residual = 0, Final residual = 0, No Iterations 0
diagonal:  Solving for T, Initial residual = 0, Final residual = 0, No Iterations 0
 T goes from min(T) [0 0 0 0 0 0 0] -2.19413e-09 to max(T) [0 0 0 0 0 0 0] 0.949824

ExecutionTime = 13.95 s  ClockTime = 245 s

Time = 0.47
Courant Number mean: 0.183374 max: 0.356979
diagonal:  Solving for T, Initial residual = 0, Final residual = 0, No Iterations 0
diagonal:  Solving for T, Initial residual = 0, Final residual = 0, No Iterations 0
diagonal:  Solving for T, Initial residual = 0, Final residual = 0, No Iterations 0
diagonal:  Solving for T, Initial residual = 0, Final residual = 0, No Iterations 0
 T goes from min(T) [0 0 0 0 0 0 0] -2.88378e-09 to max(T) [0 0 0 0 0 0 0] 0.951262

ExecutionTime = 14.07 s  ClockTime = 247 s

Time = 0.475
Courant Number mean: 0.183268 max: 0.356734
diagonal:  Solving for T, Initial residual = 0, Final residual = 0, No Iterations 0
diagonal:  Solving for T, Initial residual = 0, Final residual = 0, No Iterations 0
diagonal:  Solving for T, Initial residual = 0, Final residual = 0, No Iterations 0
diagonal:  Solving for T, Initial residual = 0, Final residual = 0, No Iterations 0
 T goes from min(T) [0 0 0 0 0 0 0] -3.60553e-09 to max(T) [0 0 0 0 0 0 0] 0.951357

ExecutionTime = 14.19 s  ClockTime = 249 s

Time = 0.48
Courant Number mean: 0.183164 max: 0.356479
diagonal:  Solving for T, Initial residual = 0, Final residual = 0, No Iterations 0
diagonal:  Solving for T, Initial residual = 0, Final residual = 0, No Iterations 0
diagonal:  Solving for T, Initial residual = 0, Final residual = 0, No Iterations 0
diagonal:  Solving for T, Initial residual = 0, Final residual = 0, No Iterations 0
 T goes from min(T) [0 0 0 0 0 0 0] -5.18426e-09 to max(T) [0 0 0 0 0 0 0] 0.950105

ExecutionTime = 14.34 s  ClockTime = 251 s

Time = 0.485
Courant Number mean: 0.183113 max: 0.35628
diagonal:  Solving for T, Initial residual = 0, Final residual = 0, No Iterations 0
diagonal:  Solving for T, Initial residual = 0, Final residual = 0, No Iterations 0
diagonal:  Solving for T, Initial residual = 0, Final residual = 0, No Iterations 0
diagonal:  Solving for T, Initial residual = 0, Final residual = 0, No Iterations 0
 T goes from min(T) [0 0 0 0 0 0 0] -7.60406e-09 to max(T) [0 0 0 0 0 0 0] 0.950437

ExecutionTime = 14.48 s  ClockTime = 254 s

Time = 0.49
Courant Number mean: 0.183052 max: 0.356055
diagonal:  Solving for T, Initial residual = 0, Final residual = 0, No Iterations 0
diagonal:  Solving for T, Initial residual = 0, Final residual = 0, No Iterations 0
diagonal:  Solving for T, Initial residual = 0, Final residual = 0, No Iterations 0
diagonal:  Solving for T, Initial residual = 0, Final residual = 0, No Iterations 0
 T goes from min(T) [0 0 0 0 0 0 0] -9.93589e-09 to max(T) [0 0 0 0 0 0 0] 0.950661

ExecutionTime = 14.62 s  ClockTime = 256 s

Time = 0.495
Courant Number mean: 0.182981 max: 0.355803
diagonal:  Solving for T, Initial residual = 0, Final residual = 0, No Iterations 0
diagonal:  Solving for T, Initial residual = 0, Final residual = 0, No Iterations 0
diagonal:  Solving for T, Initial residual = 0, Final residual = 0, No Iterations 0
diagonal:  Solving for T, Initial residual = 0, Final residual = 0, No Iterations 0
 T goes from min(T) [0 0 0 0 0 0 0] -1.21557e-08 to max(T) [0 0 0 0 0 0 0] 0.949478

ExecutionTime = 14.75 s  ClockTime = 258 s

Time = 0.5
Courant Number mean: 0.182901 max: 0.355524
diagonal:  Solving for T, Initial residual = 0, Final residual = 0, No Iterations 0
diagonal:  Solving for T, Initial residual = 0, Final residual = 0, No Iterations 0
diagonal:  Solving for T, Initial residual = 0, Final residual = 0, No Iterations 0
diagonal:  Solving for T, Initial residual = 0, Final residual = 0, No Iterations 0
 T goes from min(T) [0 0 0 0 0 0 0] -1.39941e-08 to max(T) [0 0 0 0 0 0 0] 0.94689

ExecutionTime = 14.87 s  ClockTime = 260 s

Time = 0.505
Courant Number mean: 0.18281 max: 0.355322
diagonal:  Solving for T, Initial residual = 0, Final residual = 0, No Iterations 0
diagonal:  Solving for T, Initial residual = 0, Final residual = 0, No Iterations 0
diagonal:  Solving for T, Initial residual = 0, Final residual = 0, No Iterations 0
diagonal:  Solving for T, Initial residual = 0, Final residual = 0, No Iterations 0
 T goes from min(T) [0 0 0 0 0 0 0] -1.89914e-08 to max(T) [0 0 0 0 0 0 0] 0.945439

ExecutionTime = 14.98 s  ClockTime = 262 s

Time = 0.51
Courant Number mean: 0.182711 max: 0.355093
diagonal:  Solving for T, Initial residual = 0, Final residual = 0, No Iterations 0
diagonal:  Solving for T, Initial residual = 0, Final residual = 0, No Iterations 0
diagonal:  Solving for T, Initial residual = 0, Final residual = 0, No Iterations 0
diagonal:  Solving for T, Initial residual = 0, Final residual = 0, No Iterations 0
 T goes from min(T) [0 0 0 0 0 0 0] -2.62605e-08 to max(T) [0 0 0 0 0 0 0] 0.947356

ExecutionTime = 15.1 s  ClockTime = 264 s

Time = 0.515
Courant Number mean: 0.182601 max: 0.354838
diagonal:  Solving for T, Initial residual = 0, Final residual = 0, No Iterations 0
diagonal:  Solving for T, Initial residual = 0, Final residual = 0, No Iterations 0
diagonal:  Solving for T, Initial residual = 0, Final residual = 0, No Iterations 0
diagonal:  Solving for T, Initial residual = 0, Final residual = 0, No Iterations 0
 T goes from min(T) [0 0 0 0 0 0 0] -3.12414e-08 to max(T) [0 0 0 0 0 0 0] 0.9488

ExecutionTime = 15.21 s  ClockTime = 266 s

Time = 0.52
Courant Number mean: 0.182481 max: 0.354555
diagonal:  Solving for T, Initial residual = 0, Final residual = 0, No Iterations 0
diagonal:  Solving for T, Initial residual = 0, Final residual = 0, No Iterations 0
diagonal:  Solving for T, Initial residual = 0, Final residual = 0, No Iterations 0
diagonal:  Solving for T, Initial residual = 0, Final residual = 0, No Iterations 0
 T goes from min(T) [0 0 0 0 0 0 0] -3.86206e-08 to max(T) [0 0 0 0 0 0 0] 0.949017

ExecutionTime = 15.32 s  ClockTime = 268 s

Time = 0.525
Courant Number mean: 0.182415 max: 0.35433
diagonal:  Solving for T, Initial residual = 0, Final residual = 0, No Iterations 0
diagonal:  Solving for T, Initial residual = 0, Final residual = 0, No Iterations 0
diagonal:  Solving for T, Initial residual = 0, Final residual = 0, No Iterations 0
diagonal:  Solving for T, Initial residual = 0, Final residual = 0, No Iterations 0
 T goes from min(T) [0 0 0 0 0 0 0] -4.3339e-08 to max(T) [0 0 0 0 0 0 0] 0.948717

ExecutionTime = 15.44 s  ClockTime = 270 s

Time = 0.53
Courant Number mean: 0.18235 max: 0.354094
diagonal:  Solving for T, Initial residual = 0, Final residual = 0, No Iterations 0
diagonal:  Solving for T, Initial residual = 0, Final residual = 0, No Iterations 0
diagonal:  Solving for T, Initial residual = 0, Final residual = 0, No Iterations 0
diagonal:  Solving for T, Initial residual = 0, Final residual = 0, No Iterations 0
 T goes from min(T) [0 0 0 0 0 0 0] -5.52344e-08 to max(T) [0 0 0 0 0 0 0] 0.950023

ExecutionTime = 15.56 s  ClockTime = 272 s

Time = 0.535
Courant Number mean: 0.182277 max: 0.353831
diagonal:  Solving for T, Initial residual = 0, Final residual = 0, No Iterations 0
diagonal:  Solving for T, Initial residual = 0, Final residual = 0, No Iterations 0
diagonal:  Solving for T, Initial residual = 0, Final residual = 0, No Iterations 0
diagonal:  Solving for T, Initial residual = 0, Final residual = 0, No Iterations 0
 T goes from min(T) [0 0 0 0 0 0 0] -7.0048e-08 to max(T) [0 0 0 0 0 0 0] 0.950039

ExecutionTime = 15.68 s  ClockTime = 274 s

Time = 0.54
Courant Number mean: 0.182193 max: 0.353542
diagonal:  Solving for T, Initial residual = 0, Final residual = 0, No Iterations 0
diagonal:  Solving for T, Initial residual = 0, Final residual = 0, No Iterations 0
diagonal:  Solving for T, Initial residual = 0, Final residual = 0, No Iterations 0
diagonal:  Solving for T, Initial residual = 0, Final residual = 0, No Iterations 0
 T goes from min(T) [0 0 0 0 0 0 0] -8.5378e-08 to max(T) [0 0 0 0 0 0 0] 0.948764

ExecutionTime = 15.8 s  ClockTime = 276 s

Time = 0.545
Courant Number mean: 0.1821 max: 0.353295
diagonal:  Solving for T, Initial residual = 0, Final residual = 0, No Iterations 0
diagonal:  Solving for T, Initial residual = 0, Final residual = 0, No Iterations 0
diagonal:  Solving for T, Initial residual = 0, Final residual = 0, No Iterations 0
diagonal:  Solving for T, Initial residual = 0, Final residual = 0, No Iterations 0
 T goes from min(T) [0 0 0 0 0 0 0] -1.03015e-07 to max(T) [0 0 0 0 0 0 0] 0.946801

ExecutionTime = 15.92 s  ClockTime = 278 s

Time = 0.55
Courant Number mean: 0.181996 max: 0.353056
diagonal:  Solving for T, Initial residual = 0, Final residual = 0, No Iterations 0
diagonal:  Solving for T, Initial residual = 0, Final residual = 0, No Iterations 0
diagonal:  Solving for T, Initial residual = 0, Final residual = 0, No Iterations 0
diagonal:  Solving for T, Initial residual = 0, Final residual = 0, No Iterations 0
 T goes from min(T) [0 0 0 0 0 0 0] -1.14706e-07 to max(T) [0 0 0 0 0 0 0] 0.946995

ExecutionTime = 16.04 s  ClockTime = 280 s

Time = 0.555
Courant Number mean: 0.181883 max: 0.35279
diagonal:  Solving for T, Initial residual = 0, Final residual = 0, No Iterations 0
diagonal:  Solving for T, Initial residual = 0, Final residual = 0, No Iterations 0
diagonal:  Solving for T, Initial residual = 0, Final residual = 0, No Iterations 0
diagonal:  Solving for T, Initial residual = 0, Final residual = 0, No Iterations 0
 T goes from min(T) [0 0 0 0 0 0 0] -1.32483e-07 to max(T) [0 0 0 0 0 0 0] 0.945838

ExecutionTime = 16.16 s  ClockTime = 282 s

Time = 0.56
Courant Number mean: 0.18176 max: 0.352498
diagonal:  Solving for T, Initial residual = 0, Final residual = 0, No Iterations 0
diagonal:  Solving for T, Initial residual = 0, Final residual = 0, No Iterations 0
diagonal:  Solving for T, Initial residual = 0, Final residual = 0, No Iterations 0
diagonal:  Solving for T, Initial residual = 0, Final residual = 0, No Iterations 0
 T goes from min(T) [0 0 0 0 0 0 0] -1.5634e-07 to max(T) [0 0 0 0 0 0 0] 0.943336

ExecutionTime = 16.28 s  ClockTime = 284 s

Time = 0.565
Courant Number mean: 0.181666 max: 0.352228
diagonal:  Solving for T, Initial residual = 0, Final residual = 0, No Iterations 0
diagonal:  Solving for T, Initial residual = 0, Final residual = 0, No Iterations 0
diagonal:  Solving for T, Initial residual = 0, Final residual = 0, No Iterations 0
diagonal:  Solving for T, Initial residual = 0, Final residual = 0, No Iterations 0
 T goes from min(T) [0 0 0 0 0 0 0] -1.99795e-07 to max(T) [0 0 0 0 0 0 0] 0.944777

ExecutionTime = 16.4 s  ClockTime = 286 s

Time = 0.57
Courant Number mean: 0.181598 max: 0.351982
diagonal:  Solving for T, Initial residual = 0, Final residual = 0, No Iterations 0
diagonal:  Solving for T, Initial residual = 0, Final residual = 0, No Iterations 0
diagonal:  Solving for T, Initial residual = 0, Final residual = 0, No Iterations 0
diagonal:  Solving for T, Initial residual = 0, Final residual = 0, No Iterations 0
 T goes from min(T) [0 0 0 0 0 0 0] -2.38877e-07 to max(T) [0 0 0 0 0 0 0] 0.945624

ExecutionTime = 16.52 s  ClockTime = 288 s

Time = 0.575
Courant Number mean: 0.181522 max: 0.351709
diagonal:  Solving for T, Initial residual = 0, Final residual = 0, No Iterations 0
diagonal:  Solving for T, Initial residual = 0, Final residual = 0, No Iterations 0
diagonal:  Solving for T, Initial residual = 0, Final residual = 0, No Iterations 0
diagonal:  Solving for T, Initial residual = 0, Final residual = 0, No Iterations 0
 T goes from min(T) [0 0 0 0 0 0 0] -2.66457e-07 to max(T) [0 0 0 0 0 0 0] 0.946177

ExecutionTime = 16.66 s  ClockTime = 291 s

Time = 0.58
Courant Number mean: 0.181435 max: 0.35141
diagonal:  Solving for T, Initial residual = 0, Final residual = 0, No Iterations 0
diagonal:  Solving for T, Initial residual = 0, Final residual = 0, No Iterations 0
diagonal:  Solving for T, Initial residual = 0, Final residual = 0, No Iterations 0
diagonal:  Solving for T, Initial residual = 0, Final residual = 0, No Iterations 0
 T goes from min(T) [0 0 0 0 0 0 0] -3.16735e-07 to max(T) [0 0 0 0 0 0 0] 0.947659

ExecutionTime = 16.82 s  ClockTime = 293 s

Time = 0.585
Courant Number mean: 0.181339 max: 0.351119
diagonal:  Solving for T, Initial residual = 0, Final residual = 0, No Iterations 0
diagonal:  Solving for T, Initial residual = 0, Final residual = 0, No Iterations 0
diagonal:  Solving for T, Initial residual = 0, Final residual = 0, No Iterations 0
diagonal:  Solving for T, Initial residual = 0, Final residual = 0, No Iterations 0
 T goes from min(T) [0 0 0 0 0 0 0] -3.50969e-07 to max(T) [0 0 0 0 0 0 0] 0.947993

ExecutionTime = 16.95 s  ClockTime = 296 s

Time = 0.59
Courant Number mean: 0.181232 max: 0.350869
diagonal:  Solving for T, Initial residual = 0, Final residual = 0, No Iterations 0
diagonal:  Solving for T, Initial residual = 0, Final residual = 0, No Iterations 0
diagonal:  Solving for T, Initial residual = 0, Final residual = 0, No Iterations 0
diagonal:  Solving for T, Initial residual = 0, Final residual = 0, No Iterations 0
 T goes from min(T) [0 0 0 0 0 0 0] -4.06919e-07 to max(T) [0 0 0 0 0 0 0] 0.947182

ExecutionTime = 17.1 s  ClockTime = 298 s

Time = 0.595
Courant Number mean: 0.181117 max: 0.350593
diagonal:  Solving for T, Initial residual = 0, Final residual = 0, No Iterations 0
diagonal:  Solving for T, Initial residual = 0, Final residual = 0, No Iterations 0
diagonal:  Solving for T, Initial residual = 0, Final residual = 0, No Iterations 0
diagonal:  Solving for T, Initial residual = 0, Final residual = 0, No Iterations 0
 T goes from min(T) [0 0 0 0 0 0 0] -4.86698e-07 to max(T) [0 0 0 0 0 0 0] 0.946349

ExecutionTime = 17.22 s  ClockTime = 300 s

Time = 0.6
Courant Number mean: 0.18099 max: 0.35029
diagonal:  Solving for T, Initial residual = 0, Final residual = 0, No Iterations 0
diagonal:  Solving for T, Initial residual = 0, Final residual = 0, No Iterations 0
diagonal:  Solving for T, Initial residual = 0, Final residual = 0, No Iterations 0
diagonal:  Solving for T, Initial residual = 0, Final residual = 0, No Iterations 0
 T goes from min(T) [0 0 0 0 0 0 0] -5.56109e-07 to max(T) [0 0 0 0 0 0 0] 0.946502

ExecutionTime = 17.37 s  ClockTime = 303 s

Time = 0.605
Courant Number mean: 0.180867 max: 0.349978
diagonal:  Solving for T, Initial residual = 0, Final residual = 0, No Iterations 0
diagonal:  Solving for T, Initial residual = 0, Final residual = 0, No Iterations 0
diagonal:  Solving for T, Initial residual = 0, Final residual = 0, No Iterations 0
diagonal:  Solving for T, Initial residual = 0, Final residual = 0, No Iterations 0
 T goes from min(T) [0 0 0 0 0 0 0] -6.73292e-07 to max(T) [0 0 0 0 0 0 0] 0.945449

ExecutionTime = 17.49 s  ClockTime = 305 s

Time = 0.61
Courant Number mean: 0.180797 max: 0.349721
diagonal:  Solving for T, Initial residual = 0, Final residual = 0, No Iterations 0
diagonal:  Solving for T, Initial residual = 0, Final residual = 0, No Iterations 0
diagonal:  Solving for T, Initial residual = 0, Final residual = 0, No Iterations 0
diagonal:  Solving for T, Initial residual = 0, Final residual = 0, No Iterations 0
 T goes from min(T) [0 0 0 0 0 0 0] -7.58399e-07 to max(T) [0 0 0 0 0 0 0] 0.943197

ExecutionTime = 17.61 s  ClockTime = 307 s

Time = 0.615
Courant Number mean: 0.180719 max: 0.349438
diagonal:  Solving for T, Initial residual = 0, Final residual = 0, No Iterations 0
diagonal:  Solving for T, Initial residual = 0, Final residual = 0, No Iterations 0
diagonal:  Solving for T, Initial residual = 0, Final residual = 0, No Iterations 0
diagonal:  Solving for T, Initial residual = 0, Final residual = 0, No Iterations 0
 T goes from min(T) [0 0 0 0 0 0 0] -8.23867e-07 to max(T) [0 0 0 0 0 0 0] 0.941748

ExecutionTime = 17.73 s  ClockTime = 309 s

Time = 0.62
Courant Number mean: 0.180629 max: 0.349129
diagonal:  Solving for T, Initial residual = 0, Final residual = 0, No Iterations 0
diagonal:  Solving for T, Initial residual = 0, Final residual = 0, No Iterations 0
diagonal:  Solving for T, Initial residual = 0, Final residual = 0, No Iterations 0
diagonal:  Solving for T, Initial residual = 0, Final residual = 0, No Iterations 0
 T goes from min(T) [0 0 0 0 0 0 0] -9.38679e-07 to max(T) [0 0 0 0 0 0 0] 0.940819

ExecutionTime = 17.86 s  ClockTime = 311 s

Time = 0.625
Courant Number mean: 0.18053 max: 0.348794
diagonal:  Solving for T, Initial residual = 0, Final residual = 0, No Iterations 0
diagonal:  Solving for T, Initial residual = 0, Final residual = 0, No Iterations 0
diagonal:  Solving for T, Initial residual = 0, Final residual = 0, No Iterations 0
diagonal:  Solving for T, Initial residual = 0, Final residual = 0, No Iterations 0
 T goes from min(T) [0 0 0 0 0 0 0] -1.0278e-06 to max(T) [0 0 0 0 0 0 0] 0.939421

ExecutionTime = 17.98 s  ClockTime = 313 s

Time = 0.63
Courant Number mean: 0.180421 max: 0.348533
diagonal:  Solving for T, Initial residual = 0, Final residual = 0, No Iterations 0
diagonal:  Solving for T, Initial residual = 0, Final residual = 0, No Iterations 0
diagonal:  Solving for T, Initial residual = 0, Final residual = 0, No Iterations 0
diagonal:  Solving for T, Initial residual = 0, Final residual = 0, No Iterations 0
 T goes from min(T) [0 0 0 0 0 0 0] -1.27271e-06 to max(T) [0 0 0 0 0 0 0] 0.940758

ExecutionTime = 18.1 s  ClockTime = 315 s

Time = 0.635
Courant Number mean: 0.180302 max: 0.348247
diagonal:  Solving for T, Initial residual = 0, Final residual = 0, No Iterations 0
diagonal:  Solving for T, Initial residual = 0, Final residual = 0, No Iterations 0
diagonal:  Solving for T, Initial residual = 0, Final residual = 0, No Iterations 0
diagonal:  Solving for T, Initial residual = 0, Final residual = 0, No Iterations 0
 T goes from min(T) [0 0 0 0 0 0 0] -1.46017e-06 to max(T) [0 0 0 0 0 0 0] 0.942159

ExecutionTime = 18.22 s  ClockTime = 317 s

Time = 0.64
Courant Number mean: 0.180172 max: 0.347934
diagonal:  Solving for T, Initial residual = 0, Final residual = 0, No Iterations 0
diagonal:  Solving for T, Initial residual = 0, Final residual = 0, No Iterations 0
diagonal:  Solving for T, Initial residual = 0, Final residual = 0, No Iterations 0
diagonal:  Solving for T, Initial residual = 0, Final residual = 0, No Iterations 0
 T goes from min(T) [0 0 0 0 0 0 0] -1.59437e-06 to max(T) [0 0 0 0 0 0 0] 0.943649

ExecutionTime = 18.33 s  ClockTime = 319 s

Time = 0.645
Courant Number mean: 0.180034 max: 0.347596
diagonal:  Solving for T, Initial residual = 0, Final residual = 0, No Iterations 0
diagonal:  Solving for T, Initial residual = 0, Final residual = 0, No Iterations 0
diagonal:  Solving for T, Initial residual = 0, Final residual = 0, No Iterations 0
diagonal:  Solving for T, Initial residual = 0, Final residual = 0, No Iterations 0
 T goes from min(T) [0 0 0 0 0 0 0] -1.87745e-06 to max(T) [0 0 0 0 0 0 0] 0.944168

ExecutionTime = 18.44 s  ClockTime = 321 s

Time = 0.65
Courant Number mean: 0.179949 max: 0.347313
diagonal:  Solving for T, Initial residual = 0, Final residual = 0, No Iterations 0
diagonal:  Solving for T, Initial residual = 0, Final residual = 0, No Iterations 0
diagonal:  Solving for T, Initial residual = 0, Final residual = 0, No Iterations 0
diagonal:  Solving for T, Initial residual = 0, Final residual = 0, No Iterations 0
 T goes from min(T) [0 0 0 0 0 0 0] -2.08483e-06 to max(T) [0 0 0 0 0 0 0] 0.943723

ExecutionTime = 18.57 s  ClockTime = 323 s

Time = 0.655
Courant Number mean: 0.179867 max: 0.347019
diagonal:  Solving for T, Initial residual = 0, Final residual = 0, No Iterations 0
diagonal:  Solving for T, Initial residual = 0, Final residual = 0, No Iterations 0
diagonal:  Solving for T, Initial residual = 0, Final residual = 0, No Iterations 0
diagonal:  Solving for T, Initial residual = 0, Final residual = 0, No Iterations 0
 T goes from min(T) [0 0 0 0 0 0 0] -2.22046e-06 to max(T) [0 0 0 0 0 0 0] 0.943776

ExecutionTime = 18.69 s  ClockTime = 325 s

Time = 0.66
Courant Number mean: 0.179775 max: 0.3467
diagonal:  Solving for T, Initial residual = 0, Final residual = 0, No Iterations 0
diagonal:  Solving for T, Initial residual = 0, Final residual = 0, No Iterations 0
diagonal:  Solving for T, Initial residual = 0, Final residual = 0, No Iterations 0
diagonal:  Solving for T, Initial residual = 0, Final residual = 0, No Iterations 0
 T goes from min(T) [0 0 0 0 0 0 0] -2.49622e-06 to max(T) [0 0 0 0 0 0 0] 0.943745

ExecutionTime = 18.8 s  ClockTime = 327 s

Time = 0.665
Courant Number mean: 0.179674 max: 0.346355
diagonal:  Solving for T, Initial residual = 0, Final residual = 0, No Iterations 0
diagonal:  Solving for T, Initial residual = 0, Final residual = 0, No Iterations 0
diagonal:  Solving for T, Initial residual = 0, Final residual = 0, No Iterations 0
diagonal:  Solving for T, Initial residual = 0, Final residual = 0, No Iterations 0
 T goes from min(T) [0 0 0 0 0 0 0] -2.77472e-06 to max(T) [0 0 0 0 0 0 0] 0.94269

ExecutionTime = 18.93 s  ClockTime = 329 s

Time = 0.67
Courant Number mean: 0.179562 max: 0.346051
diagonal:  Solving for T, Initial residual = 0, Final residual = 0, No Iterations 0
diagonal:  Solving for T, Initial residual = 0, Final residual = 0, No Iterations 0
diagonal:  Solving for T, Initial residual = 0, Final residual = 0, No Iterations 0
diagonal:  Solving for T, Initial residual = 0, Final residual = 0, No Iterations 0
 T goes from min(T) [0 0 0 0 0 0 0] -3.34076e-06 to max(T) [0 0 0 0 0 0 0] 0.940622

ExecutionTime = 19.06 s  ClockTime = 332 s

Time = 0.675
Courant Number mean: 0.17944 max: 0.345754
diagonal:  Solving for T, Initial residual = 0, Final residual = 0, No Iterations 0
diagonal:  Solving for T, Initial residual = 0, Final residual = 0, No Iterations 0
diagonal:  Solving for T, Initial residual = 0, Final residual = 0, No Iterations 0
diagonal:  Solving for T, Initial residual = 0, Final residual = 0, No Iterations 0
 T goes from min(T) [0 0 0 0 0 0 0] -3.82026e-06 to max(T) [0 0 0 0 0 0 0] 0.940325

ExecutionTime = 19.19 s  ClockTime = 334 s

Time = 0.68
Courant Number mean: 0.17931 max: 0.345432
diagonal:  Solving for T, Initial residual = 0, Final residual = 0, No Iterations 0
diagonal:  Solving for T, Initial residual = 0, Final residual = 0, No Iterations 0
diagonal:  Solving for T, Initial residual = 0, Final residual = 0, No Iterations 0
diagonal:  Solving for T, Initial residual = 0, Final residual = 0, No Iterations 0
 T goes from min(T) [0 0 0 0 0 0 0] -4.16857e-06 to max(T) [0 0 0 0 0 0 0] 0.938968

ExecutionTime = 19.3 s  ClockTime = 336 s

Time = 0.685
Courant Number mean: 0.179171 max: 0.345084
diagonal:  Solving for T, Initial residual = 0, Final residual = 0, No Iterations 0
diagonal:  Solving for T, Initial residual = 0, Final residual = 0, No Iterations 0
diagonal:  Solving for T, Initial residual = 0, Final residual = 0, No Iterations 0
diagonal:  Solving for T, Initial residual = 0, Final residual = 0, No Iterations 0
 T goes from min(T) [0 0 0 0 0 0 0] -4.59447e-06 to max(T) [0 0 0 0 0 0 0] 0.936542

ExecutionTime = 19.42 s  ClockTime = 338 s

Time = 0.69
Courant Number mean: 0.179059 max: 0.344758
diagonal:  Solving for T, Initial residual = 0, Final residual = 0, No Iterations 0
diagonal:  Solving for T, Initial residual = 0, Final residual = 0, No Iterations 0
diagonal:  Solving for T, Initial residual = 0, Final residual = 0, No Iterations 0
diagonal:  Solving for T, Initial residual = 0, Final residual = 0, No Iterations 0
 T goes from min(T) [0 0 0 0 0 0 0] -5.14454e-06 to max(T) [0 0 0 0 0 0 0] 0.93448

ExecutionTime = 19.55 s  ClockTime = 340 s

Time = 0.695
Courant Number mean: 0.178972 max: 0.344454
diagonal:  Solving for T, Initial residual = 0, Final residual = 0, No Iterations 0
diagonal:  Solving for T, Initial residual = 0, Final residual = 0, No Iterations 0
diagonal:  Solving for T, Initial residual = 0, Final residual = 0, No Iterations 0
diagonal:  Solving for T, Initial residual = 0, Final residual = 0, No Iterations 0
 T goes from min(T) [0 0 0 0 0 0 0] -5.51767e-06 to max(T) [0 0 0 0 0 0 0] 0.93316

ExecutionTime = 19.66 s  ClockTime = 342 s

Time = 0.7
Courant Number mean: 0.178877 max: 0.344125
diagonal:  Solving for T, Initial residual = 0, Final residual = 0, No Iterations 0
diagonal:  Solving for T, Initial residual = 0, Final residual = 0, No Iterations 0
diagonal:  Solving for T, Initial residual = 0, Final residual = 0, No Iterations 0
diagonal:  Solving for T, Initial residual = 0, Final residual = 0, No Iterations 0
 T goes from min(T) [0 0 0 0 0 0 0] -6.23094e-06 to max(T) [0 0 0 0 0 0 0] 0.932421

ExecutionTime = 19.78 s  ClockTime = 344 s

Time = 0.705
Courant Number mean: 0.178771 max: 0.343771
diagonal:  Solving for T, Initial residual = 0, Final residual = 0, No Iterations 0
diagonal:  Solving for T, Initial residual = 0, Final residual = 0, No Iterations 0
diagonal:  Solving for T, Initial residual = 0, Final residual = 0, No Iterations 0
diagonal:  Solving for T, Initial residual = 0, Final residual = 0, No Iterations 0
 T goes from min(T) [0 0 0 0 0 0 0] -6.97226e-06 to max(T) [0 0 0 0 0 0 0] 0.934378

ExecutionTime = 19.91 s  ClockTime = 346 s

Time = 0.71
Courant Number mean: 0.178656 max: 0.343424
diagonal:  Solving for T, Initial residual = 0, Final residual = 0, No Iterations 0
diagonal:  Solving for T, Initial residual = 0, Final residual = 0, No Iterations 0
diagonal:  Solving for T, Initial residual = 0, Final residual = 0, No Iterations 0
diagonal:  Solving for T, Initial residual = 0, Final residual = 0, No Iterations 0
 T goes from min(T) [0 0 0 0 0 0 0] -7.60981e-06 to max(T) [0 0 0 0 0 0 0] 0.936415

ExecutionTime = 20.05 s  ClockTime = 348 s

Time = 0.715
Courant Number mean: 0.178534 max: 0.343117
diagonal:  Solving for T, Initial residual = 0, Final residual = 0, No Iterations 0
diagonal:  Solving for T, Initial residual = 0, Final residual = 0, No Iterations 0
diagonal:  Solving for T, Initial residual = 0, Final residual = 0, No Iterations 0
diagonal:  Solving for T, Initial residual = 0, Final residual = 0, No Iterations 0
 T goes from min(T) [0 0 0 0 0 0 0] -8.89516e-06 to max(T) [0 0 0 0 0 0 0] 0.93769

ExecutionTime = 20.17 s  ClockTime = 351 s

Time = 0.72
Courant Number mean: 0.178404 max: 0.342784
diagonal:  Solving for T, Initial residual = 0, Final residual = 0, No Iterations 0
diagonal:  Solving for T, Initial residual = 0, Final residual = 0, No Iterations 0
diagonal:  Solving for T, Initial residual = 0, Final residual = 0, No Iterations 0
diagonal:  Solving for T, Initial residual = 0, Final residual = 0, No Iterations 0
 T goes from min(T) [0 0 0 0 0 0 0] -9.86115e-06 to max(T) [0 0 0 0 0 0 0] 0.93821

ExecutionTime = 20.3 s  ClockTime = 353 s

Time = 0.725
Courant Number mean: 0.178263 max: 0.342426
diagonal:  Solving for T, Initial residual = 0, Final residual = 0, No Iterations 0
diagonal:  Solving for T, Initial residual = 0, Final residual = 0, No Iterations 0
diagonal:  Solving for T, Initial residual = 0, Final residual = 0, No Iterations 0
diagonal:  Solving for T, Initial residual = 0, Final residual = 0, No Iterations 0
 T goes from min(T) [0 0 0 0 0 0 0] -1.05311e-05 to max(T) [0 0 0 0 0 0 0] 0.938163

ExecutionTime = 20.42 s  ClockTime = 355 s

Time = 0.73
Courant Number mean: 0.178124 max: 0.342059
diagonal:  Solving for T, Initial residual = 0, Final residual = 0, No Iterations 0
diagonal:  Solving for T, Initial residual = 0, Final residual = 0, No Iterations 0
diagonal:  Solving for T, Initial residual = 0, Final residual = 0, No Iterations 0
diagonal:  Solving for T, Initial residual = 0, Final residual = 0, No Iterations 0
 T goes from min(T) [0 0 0 0 0 0 0] -1.14523e-05 to max(T) [0 0 0 0 0 0 0] 0.938585

ExecutionTime = 20.54 s  ClockTime = 357 s

Time = 0.735
Courant Number mean: 0.178036 max: 0.341745
diagonal:  Solving for T, Initial residual = 0, Final residual = 0, No Iterations 0
diagonal:  Solving for T, Initial residual = 0, Final residual = 0, No Iterations 0
diagonal:  Solving for T, Initial residual = 0, Final residual = 0, No Iterations 0
diagonal:  Solving for T, Initial residual = 0, Final residual = 0, No Iterations 0
 T goes from min(T) [0 0 0 0 0 0 0] -1.25332e-05 to max(T) [0 0 0 0 0 0 0] 0.938199

ExecutionTime = 20.67 s  ClockTime = 359 s

Time = 0.74
Courant Number mean: 0.177937 max: 0.341406
diagonal:  Solving for T, Initial residual = 0, Final residual = 0, No Iterations 0
diagonal:  Solving for T, Initial residual = 0, Final residual = 0, No Iterations 0
diagonal:  Solving for T, Initial residual = 0, Final residual = 0, No Iterations 0
diagonal:  Solving for T, Initial residual = 0, Final residual = 0, No Iterations 0
 T goes from min(T) [0 0 0 0 0 0 0] -1.36497e-05 to max(T) [0 0 0 0 0 0 0] 0.937015

ExecutionTime = 20.79 s  ClockTime = 361 s

Time = 0.745
Courant Number mean: 0.177828 max: 0.341042
diagonal:  Solving for T, Initial residual = 0, Final residual = 0, No Iterations 0
diagonal:  Solving for T, Initial residual = 0, Final residual = 0, No Iterations 0
diagonal:  Solving for T, Initial residual = 0, Final residual = 0, No Iterations 0
diagonal:  Solving for T, Initial residual = 0, Final residual = 0, No Iterations 0
 T goes from min(T) [0 0 0 0 0 0 0] -1.56825e-05 to max(T) [0 0 0 0 0 0 0] 0.936205

ExecutionTime = 20.92 s  ClockTime = 363 s

Time = 0.75
Courant Number mean: 0.177712 max: 0.340653
diagonal:  Solving for T, Initial residual = 0, Final residual = 0, No Iterations 0
diagonal:  Solving for T, Initial residual = 0, Final residual = 0, No Iterations 0
diagonal:  Solving for T, Initial residual = 0, Final residual = 0, No Iterations 0
diagonal:  Solving for T, Initial residual = 0, Final residual = 0, No Iterations 0
 T goes from min(T) [0 0 0 0 0 0 0] -1.72351e-05 to max(T) [0 0 0 0 0 0 0] 0.935142

ExecutionTime = 21.04 s  ClockTime = 365 s

Time = 0.755
Courant Number mean: 0.177588 max: 0.340336
diagonal:  Solving for T, Initial residual = 0, Final residual = 0, No Iterations 0
diagonal:  Solving for T, Initial residual = 0, Final residual = 0, No Iterations 0
diagonal:  Solving for T, Initial residual = 0, Final residual = 0, No Iterations 0
diagonal:  Solving for T, Initial residual = 0, Final residual = 0, No Iterations 0
 T goes from min(T) [0 0 0 0 0 0 0] -1.83355e-05 to max(T) [0 0 0 0 0 0 0] 0.933231

ExecutionTime = 21.15 s  ClockTime = 367 s

Time = 0.76
Courant Number mean: 0.177455 max: 0.339993
[...]
 T goes from min(T) [0 0 0 0 0 0 0] -0.0958385 to max(T) [0 0 0 0 0 0 0] 0.741039

ExecutionTime = 153.62 s  ClockTime = 1956 s

Time = 5.815
Courant Number mean: 0.176041 max: 0.335902
diagonal:  Solving for T, Initial residual = 0, Final residual = 0, No Iterations 0
diagonal:  Solving for T, Initial residual = 0, Final residual = 0, No Iterations 0
diagonal:  Solving for T, Initial residual = 0, Final residual = 0, No Iterations 0
diagonal:  Solving for T, Initial residual = 0, Final residual = 0, No Iterations 0
 T goes from min(T) [0 0 0 0 0 0 0] -0.0955637 to max(T) [0 0 0 0 0 0 0] 0.740657

ExecutionTime = 153.76 s  ClockTime = 1958 s

Time = 5.82
Courant Number mean: 0.175941 max: 0.335543
diagonal:  Solving for T, Initial residual = 0, Final residual = 0, No Iterations 0
diagonal:  Solving for T, Initial residual = 0, Final residual = 0, No Iterations 0
diagonal:  Solving for T, Initial residual = 0, Final residual = 0, No Iterations 0
diagonal:  Solving for T, Initial residual = 0, Final residual = 0, No Iterations 0
 T goes from min(T) [0 0 0 0 0 0 0] -0.0961551 to max(T) [0 0 0 0 0 0 0] 0.740685

ExecutionTime = 153.94 s  ClockTime = 1959 s

Time = 5.825
Courant Number mean: 0.175832 max: 0.33516
diagonal:  Solving for T, Initial residual = 0, Final residual = 0, No Iterations 0
diagonal:  Solving for T, Initial residual = 0, Final residual = 0, No Iterations 0
diagonal:  Solving for T, Initial residual = 0, Final residual = 0, No Iterations 0
diagonal:  Solving for T, Initial residual = 0, Final residual = 0, No Iterations 0
 T goes from min(T) [0 0 0 0 0 0 0] -0.0963382 to max(T) [0 0 0 0 0 0 0] 0.740474

ExecutionTime = 154.06 s  ClockTime = 1960 s

Time = 5.83
Courant Number mean: 0.175712 max: 0.334752
diagonal:  Solving for T, Initial residual = 0, Final residual = 0, No Iterations 0
diagonal:  Solving for T, Initial residual = 0, Final residual = 0, No Iterations 0
diagonal:  Solving for T, Initial residual = 0, Final residual = 0, No Iterations 0
diagonal:  Solving for T, Initial residual = 0, Final residual = 0, No Iterations 0
 T goes from min(T) [0 0 0 0 0 0 0] -0.0960977 to max(T) [0 0 0 0 0 0 0] 0.74099

ExecutionTime = 154.2 s  ClockTime = 1961 s

Time = 5.835
Courant Number mean: 0.175582 max: 0.334351
diagonal:  Solving for T, Initial residual = 0, Final residual = 0, No Iterations 0
diagonal:  Solving for T, Initial residual = 0, Final residual = 0, No Iterations 0
diagonal:  Solving for T, Initial residual = 0, Final residual = 0, No Iterations 0
diagonal:  Solving for T, Initial residual = 0, Final residual = 0, No Iterations 0
 T goes from min(T) [0 0 0 0 0 0 0] -0.0962175 to max(T) [0 0 0 0 0 0 0] 0.741367

ExecutionTime = 154.32 s  ClockTime = 1962 s

Time = 5.84
Courant Number mean: 0.175445 max: 0.333989
diagonal:  Solving for T, Initial residual = 0, Final residual = 0, No Iterations 0
diagonal:  Solving for T, Initial residual = 0, Final residual = 0, No Iterations 0
diagonal:  Solving for T, Initial residual = 0, Final residual = 0, No Iterations 0
diagonal:  Solving for T, Initial residual = 0, Final residual = 0, No Iterations 0
 T goes from min(T) [0 0 0 0 0 0 0] -0.0959905 to max(T) [0 0 0 0 0 0 0] 0.741367

ExecutionTime = 154.45 s  ClockTime = 1963 s

Time = 5.845
Courant Number mean: 0.175297 max: 0.333602
diagonal:  Solving for T, Initial residual = 0, Final residual = 0, No Iterations 0
diagonal:  Solving for T, Initial residual = 0, Final residual = 0, No Iterations 0
diagonal:  Solving for T, Initial residual = 0, Final residual = 0, No Iterations 0
diagonal:  Solving for T, Initial residual = 0, Final residual = 0, No Iterations 0
 T goes from min(T) [0 0 0 0 0 0 0] -0.0953019 to max(T) [0 0 0 0 0 0 0] 0.741006

ExecutionTime = 154.58 s  ClockTime = 1964 s

Time = 5.85
Courant Number mean: 0.175142 max: 0.333191
diagonal:  Solving for T, Initial residual = 0, Final residual = 0, No Iterations 0
diagonal:  Solving for T, Initial residual = 0, Final residual = 0, No Iterations 0
diagonal:  Solving for T, Initial residual = 0, Final residual = 0, No Iterations 0
diagonal:  Solving for T, Initial residual = 0, Final residual = 0, No Iterations 0
 T goes from min(T) [0 0 0 0 0 0 0] -0.0948634 to max(T) [0 0 0 0 0 0 0] 0.740637

ExecutionTime = 154.72 s  ClockTime = 1965 s

Time = 5.855
Courant Number mean: 0.17499 max: 0.332772
diagonal:  Solving for T, Initial residual = 0, Final residual = 0, No Iterations 0
diagonal:  Solving for T, Initial residual = 0, Final residual = 0, No Iterations 0
diagonal:  Solving for T, Initial residual = 0, Final residual = 0, No Iterations 0
diagonal:  Solving for T, Initial residual = 0, Final residual = 0, No Iterations 0
 T goes from min(T) [0 0 0 0 0 0 0] -0.0948695 to max(T) [0 0 0 0 0 0 0] 0.740683

ExecutionTime = 154.86 s  ClockTime = 1967 s

Time = 5.86
Courant Number mean: 0.174886 max: 0.332403
diagonal:  Solving for T, Initial residual = 0, Final residual = 0, No Iterations 0
diagonal:  Solving for T, Initial residual = 0, Final residual = 0, No Iterations 0
diagonal:  Solving for T, Initial residual = 0, Final residual = 0, No Iterations 0
diagonal:  Solving for T, Initial residual = 0, Final residual = 0, No Iterations 0
 T goes from min(T) [0 0 0 0 0 0 0] -0.0950321 to max(T) [0 0 0 0 0 0 0] 0.740652

ExecutionTime = 155 s  ClockTime = 1968 s

Time = 5.865
Courant Number mean: 0.174772 max: 0.33201
diagonal:  Solving for T, Initial residual = 0, Final residual = 0, No Iterations 0
diagonal:  Solving for T, Initial residual = 0, Final residual = 0, No Iterations 0
diagonal:  Solving for T, Initial residual = 0, Final residual = 0, No Iterations 0
diagonal:  Solving for T, Initial residual = 0, Final residual = 0, No Iterations 0
 T goes from min(T) [0 0 0 0 0 0 0] -0.095227 to max(T) [0 0 0 0 0 0 0] 0.740543

ExecutionTime = 155.14 s  ClockTime = 1969 s

Time = 5.87
Courant Number mean: 0.17465 max: 0.331593
diagonal:  Solving for T, Initial residual = 0, Final residual = 0, No Iterations 0
diagonal:  Solving for T, Initial residual = 0, Final residual = 0, No Iterations 0
diagonal:  Solving for T, Initial residual = 0, Final residual = 0, No Iterations 0
diagonal:  Solving for T, Initial residual = 0, Final residual = 0, No Iterations 0
 T goes from min(T) [0 0 0 0 0 0 0] -0.0954475 to max(T) [0 0 0 0 0 0 0] 0.740358

ExecutionTime = 155.27 s  ClockTime = 1970 s

Time = 5.875
Courant Number mean: 0.17452 max: 0.331152
diagonal:  Solving for T, Initial residual = 0, Final residual = 0, No Iterations 0
diagonal:  Solving for T, Initial residual = 0, Final residual = 0, No Iterations 0
diagonal:  Solving for T, Initial residual = 0, Final residual = 0, No Iterations 0
diagonal:  Solving for T, Initial residual = 0, Final residual = 0, No Iterations 0
 T goes from min(T) [0 0 0 0 0 0 0] -0.0952145 to max(T) [0 0 0 0 0 0 0] 0.740096

ExecutionTime = 155.39 s  ClockTime = 1971 s

Time = 5.88
Courant Number mean: 0.17438 max: 0.33078
diagonal:  Solving for T, Initial residual = 0, Final residual = 0, No Iterations 0
diagonal:  Solving for T, Initial residual = 0, Final residual = 0, No Iterations 0
diagonal:  Solving for T, Initial residual = 0, Final residual = 0, No Iterations 0
diagonal:  Solving for T, Initial residual = 0, Final residual = 0, No Iterations 0
 T goes from min(T) [0 0 0 0 0 0 0] -0.094516 to max(T) [0 0 0 0 0 0 0] 0.739755

ExecutionTime = 155.52 s  ClockTime = 1972 s

Time = 5.885
Courant Number mean: 0.174233 max: 0.330383
diagonal:  Solving for T, Initial residual = 0, Final residual = 0, No Iterations 0
diagonal:  Solving for T, Initial residual = 0, Final residual = 0, No Iterations 0
diagonal:  Solving for T, Initial residual = 0, Final residual = 0, No Iterations 0
diagonal:  Solving for T, Initial residual = 0, Final residual = 0, No Iterations 0
 T goes from min(T) [0 0 0 0 0 0 0] -0.0946164 to max(T) [0 0 0 0 0 0 0] 0.739336

ExecutionTime = 155.68 s  ClockTime = 1973 s

Time = 5.89
Courant Number mean: 0.174077 max: 0.329963
diagonal:  Solving for T, Initial residual = 0, Final residual = 0, No Iterations 0
diagonal:  Solving for T, Initial residual = 0, Final residual = 0, No Iterations 0
diagonal:  Solving for T, Initial residual = 0, Final residual = 0, No Iterations 0
diagonal:  Solving for T, Initial residual = 0, Final residual = 0, No Iterations 0
 T goes from min(T) [0 0 0 0 0 0 0] -0.0943702 to max(T) [0 0 0 0 0 0 0] 0.738837

ExecutionTime = 155.81 s  ClockTime = 1974 s

Time = 5.895
Courant Number mean: 0.173912 max: 0.329519
diagonal:  Solving for T, Initial residual = 0, Final residual = 0, No Iterations 0
diagonal:  Solving for T, Initial residual = 0, Final residual = 0, No Iterations 0
diagonal:  Solving for T, Initial residual = 0, Final residual = 0, No Iterations 0
diagonal:  Solving for T, Initial residual = 0, Final residual = 0, No Iterations 0
 T goes from min(T) [0 0 0 0 0 0 0] -0.0936363 to max(T) [0 0 0 0 0 0 0] 0.738258

ExecutionTime = 155.94 s  ClockTime = 1975 s

Time = 5.9
Courant Number mean: 0.173795 max: 0.329126
diagonal:  Solving for T, Initial residual = 0, Final residual = 0, No Iterations 0
diagonal:  Solving for T, Initial residual = 0, Final residual = 0, No Iterations 0
diagonal:  Solving for T, Initial residual = 0, Final residual = 0, No Iterations 0
diagonal:  Solving for T, Initial residual = 0, Final residual = 0, No Iterations 0
 T goes from min(T) [0 0 0 0 0 0 0] -0.0941388 to max(T) [0 0 0 0 0 0 0] 0.737597

ExecutionTime = 156.08 s  ClockTime = 1976 s

Time = 5.905
Courant Number mean: 0.17368 max: 0.328723
diagonal:  Solving for T, Initial residual = 0, Final residual = 0, No Iterations 0
diagonal:  Solving for T, Initial residual = 0, Final residual = 0, No Iterations 0
diagonal:  Solving for T, Initial residual = 0, Final residual = 0, No Iterations 0
diagonal:  Solving for T, Initial residual = 0, Final residual = 0, No Iterations 0
 T goes from min(T) [0 0 0 0 0 0 0] -0.0943907 to max(T) [0 0 0 0 0 0 0] 0.736853

ExecutionTime = 156.22 s  ClockTime = 1977 s

Time = 5.91
Courant Number mean: 0.173555 max: 0.328297
diagonal:  Solving for T, Initial residual = 0, Final residual = 0, No Iterations 0
diagonal:  Solving for T, Initial residual = 0, Final residual = 0, No Iterations 0
diagonal:  Solving for T, Initial residual = 0, Final residual = 0, No Iterations 0
diagonal:  Solving for T, Initial residual = 0, Final residual = 0, No Iterations 0
 T goes from min(T) [0 0 0 0 0 0 0] -0.0941862 to max(T) [0 0 0 0 0 0 0] 0.736025

ExecutionTime = 156.35 s  ClockTime = 1978 s

Time = 5.915
Courant Number mean: 0.173423 max: 0.327848
diagonal:  Solving for T, Initial residual = 0, Final residual = 0, No Iterations 0
diagonal:  Solving for T, Initial residual = 0, Final residual = 0, No Iterations 0
diagonal:  Solving for T, Initial residual = 0, Final residual = 0, No Iterations 0
diagonal:  Solving for T, Initial residual = 0, Final residual = 0, No Iterations 0
 T goes from min(T) [0 0 0 0 0 0 0] -0.0937422 to max(T) [0 0 0 0 0 0 0] 0.735111

ExecutionTime = 156.49 s  ClockTime = 1979 s

Time = 5.92
Courant Number mean: 0.173283 max: 0.327435
diagonal:  Solving for T, Initial residual = 0, Final residual = 0, No Iterations 0
diagonal:  Solving for T, Initial residual = 0, Final residual = 0, No Iterations 0
diagonal:  Solving for T, Initial residual = 0, Final residual = 0, No Iterations 0
diagonal:  Solving for T, Initial residual = 0, Final residual = 0, No Iterations 0
 T goes from min(T) [0 0 0 0 0 0 0] -0.0940245 to max(T) [0 0 0 0 0 0 0] 0.734983

ExecutionTime = 156.63 s  ClockTime = 1981 s

Time = 5.925
Courant Number mean: 0.173133 max: 0.327029
diagonal:  Solving for T, Initial residual = 0, Final residual = 0, No Iterations 0
diagonal:  Solving for T, Initial residual = 0, Final residual = 0, No Iterations 0
diagonal:  Solving for T, Initial residual = 0, Final residual = 0, No Iterations 0
diagonal:  Solving for T, Initial residual = 0, Final residual = 0, No Iterations 0
 T goes from min(T) [0 0 0 0 0 0 0] -0.0938288 to max(T) [0 0 0 0 0 0 0] 0.735337

ExecutionTime = 156.75 s  ClockTime = 1982 s

Time = 5.93
Courant Number mean: 0.172975 max: 0.3266
diagonal:  Solving for T, Initial residual = 0, Final residual = 0, No Iterations 0
diagonal:  Solving for T, Initial residual = 0, Final residual = 0, No Iterations 0
diagonal:  Solving for T, Initial residual = 0, Final residual = 0, No Iterations 0
diagonal:  Solving for T, Initial residual = 0, Final residual = 0, No Iterations 0
 T goes from min(T) [0 0 0 0 0 0 0] -0.0931417 to max(T) [0 0 0 0 0 0 0] 0.735884

ExecutionTime = 156.88 s  ClockTime = 1983 s

Time = 5.935
Courant Number mean: 0.17281 max: 0.326147
diagonal:  Solving for T, Initial residual = 0, Final residual = 0, No Iterations 0
diagonal:  Solving for T, Initial residual = 0, Final residual = 0, No Iterations 0
diagonal:  Solving for T, Initial residual = 0, Final residual = 0, No Iterations 0
diagonal:  Solving for T, Initial residual = 0, Final residual = 0, No Iterations 0
 T goes from min(T) [0 0 0 0 0 0 0] -0.0927649 to max(T) [0 0 0 0 0 0 0] 0.736411

ExecutionTime = 157.01 s  ClockTime = 1984 s

Time = 5.94
Courant Number mean: 0.172668 max: 0.325715
diagonal:  Solving for T, Initial residual = 0, Final residual = 0, No Iterations 0
diagonal:  Solving for T, Initial residual = 0, Final residual = 0, No Iterations 0
diagonal:  Solving for T, Initial residual = 0, Final residual = 0, No Iterations 0
diagonal:  Solving for T, Initial residual = 0, Final residual = 0, No Iterations 0
 T goes from min(T) [0 0 0 0 0 0 0] -0.0930781 to max(T) [0 0 0 0 0 0 0] 0.736698

ExecutionTime = 157.14 s  ClockTime = 1985 s

Time = 5.945
Courant Number mean: 0.172552 max: 0.325303
diagonal:  Solving for T, Initial residual = 0, Final residual = 0, No Iterations 0
diagonal:  Solving for T, Initial residual = 0, Final residual = 0, No Iterations 0
diagonal:  Solving for T, Initial residual = 0, Final residual = 0, No Iterations 0
diagonal:  Solving for T, Initial residual = 0, Final residual = 0, No Iterations 0
 T goes from min(T) [0 0 0 0 0 0 0] -0.0929341 to max(T) [0 0 0 0 0 0 0] 0.736754

ExecutionTime = 157.27 s  ClockTime = 1986 s

Time = 5.95
Courant Number mean: 0.172428 max: 0.324868
diagonal:  Solving for T, Initial residual = 0, Final residual = 0, No Iterations 0
diagonal:  Solving for T, Initial residual = 0, Final residual = 0, No Iterations 0
diagonal:  Solving for T, Initial residual = 0, Final residual = 0, No Iterations 0
diagonal:  Solving for T, Initial residual = 0, Final residual = 0, No Iterations 0
 T goes from min(T) [0 0 0 0 0 0 0] -0.0927454 to max(T) [0 0 0 0 0 0 0] 0.736591

ExecutionTime = 157.39 s  ClockTime = 1987 s

Time = 5.955
Courant Number mean: 0.172295 max: 0.324409
diagonal:  Solving for T, Initial residual = 0, Final residual = 0, No Iterations 0
diagonal:  Solving for T, Initial residual = 0, Final residual = 0, No Iterations 0
diagonal:  Solving for T, Initial residual = 0, Final residual = 0, No Iterations 0
diagonal:  Solving for T, Initial residual = 0, Final residual = 0, No Iterations 0
 T goes from min(T) [0 0 0 0 0 0 0] -0.0931164 to max(T) [0 0 0 0 0 0 0] 0.736541

ExecutionTime = 157.51 s  ClockTime = 1988 s

Time = 5.96
Courant Number mean: 0.172154 max: 0.323957
diagonal:  Solving for T, Initial residual = 0, Final residual = 0, No Iterations 0
diagonal:  Solving for T, Initial residual = 0, Final residual = 0, No Iterations 0
diagonal:  Solving for T, Initial residual = 0, Final residual = 0, No Iterations 0
diagonal:  Solving for T, Initial residual = 0, Final residual = 0, No Iterations 0
 T goes from min(T) [0 0 0 0 0 0 0] -0.0930075 to max(T) [0 0 0 0 0 0 0] 0.736587

ExecutionTime = 157.64 s  ClockTime = 1989 s

Time = 5.965
Courant Number mean: 0.172004 max: 0.323542
diagonal:  Solving for T, Initial residual = 0, Final residual = 0, No Iterations 0
diagonal:  Solving for T, Initial residual = 0, Final residual = 0, No Iterations 0
diagonal:  Solving for T, Initial residual = 0, Final residual = 0, No Iterations 0
diagonal:  Solving for T, Initial residual = 0, Final residual = 0, No Iterations 0
 T goes from min(T) [0 0 0 0 0 0 0] -0.0924055 to max(T) [0 0 0 0 0 0 0] 0.73639

ExecutionTime = 157.77 s  ClockTime = 1990 s

Time = 5.97
Courant Number mean: 0.171844 max: 0.323104
diagonal:  Solving for T, Initial residual = 0, Final residual = 0, No Iterations 0
diagonal:  Solving for T, Initial residual = 0, Final residual = 0, No Iterations 0
diagonal:  Solving for T, Initial residual = 0, Final residual = 0, No Iterations 0
diagonal:  Solving for T, Initial residual = 0, Final residual = 0, No Iterations 0
 T goes from min(T) [0 0 0 0 0 0 0] -0.0920477 to max(T) [0 0 0 0 0 0 0] 0.73596

ExecutionTime = 157.89 s  ClockTime = 1991 s

Time = 5.975
Courant Number mean: 0.171677 max: 0.322642
diagonal:  Solving for T, Initial residual = 0, Final residual = 0, No Iterations 0
diagonal:  Solving for T, Initial residual = 0, Final residual = 0, No Iterations 0
diagonal:  Solving for T, Initial residual = 0, Final residual = 0, No Iterations 0
diagonal:  Solving for T, Initial residual = 0, Final residual = 0, No Iterations 0
 T goes from min(T) [0 0 0 0 0 0 0] -0.0923497 to max(T) [0 0 0 0 0 0 0] 0.735309

ExecutionTime = 158.02 s  ClockTime = 1992 s

Time = 5.98
Courant Number mean: 0.171514 max: 0.322172
diagonal:  Solving for T, Initial residual = 0, Final residual = 0, No Iterations 0
diagonal:  Solving for T, Initial residual = 0, Final residual = 0, No Iterations 0
diagonal:  Solving for T, Initial residual = 0, Final residual = 0, No Iterations 0
diagonal:  Solving for T, Initial residual = 0, Final residual = 0, No Iterations 0
 T goes from min(T) [0 0 0 0 0 0 0] -0.0921485 to max(T) [0 0 0 0 0 0 0] 0.734978

ExecutionTime = 158.15 s  ClockTime = 1993 s

Time = 5.985
Courant Number mean: 0.171397 max: 0.321751
diagonal:  Solving for T, Initial residual = 0, Final residual = 0, No Iterations 0
diagonal:  Solving for T, Initial residual = 0, Final residual = 0, No Iterations 0
diagonal:  Solving for T, Initial residual = 0, Final residual = 0, No Iterations 0
diagonal:  Solving for T, Initial residual = 0, Final residual = 0, No Iterations 0
 T goes from min(T) [0 0 0 0 0 0 0] -0.0914307 to max(T) [0 0 0 0 0 0 0] 0.734575

ExecutionTime = 158.28 s  ClockTime = 1994 s

Time = 5.99
Courant Number mean: 0.171272 max: 0.321306
diagonal:  Solving for T, Initial residual = 0, Final residual = 0, No Iterations 0
diagonal:  Solving for T, Initial residual = 0, Final residual = 0, No Iterations 0
diagonal:  Solving for T, Initial residual = 0, Final residual = 0, No Iterations 0
diagonal:  Solving for T, Initial residual = 0, Final residual = 0, No Iterations 0
 T goes from min(T) [0 0 0 0 0 0 0] -0.0919148 to max(T) [0 0 0 0 0 0 0] 0.733926

ExecutionTime = 158.4 s  ClockTime = 1995 s

Time = 5.995
Courant Number mean: 0.171138 max: 0.320839
diagonal:  Solving for T, Initial residual = 0, Final residual = 0, No Iterations 0
diagonal:  Solving for T, Initial residual = 0, Final residual = 0, No Iterations 0
diagonal:  Solving for T, Initial residual = 0, Final residual = 0, No Iterations 0
diagonal:  Solving for T, Initial residual = 0, Final residual = 0, No Iterations 0
 T goes from min(T) [0 0 0 0 0 0 0] -0.0919252 to max(T) [0 0 0 0 0 0 0] 0.733041

ExecutionTime = 158.53 s  ClockTime = 1996 s

Time = 6
Courant Number mean: 0.170996 max: 0.320349
diagonal:  Solving for T, Initial residual = 0, Final residual = 0, No Iterations 0
diagonal:  Solving for T, Initial residual = 0, Final residual = 0, No Iterations 0
diagonal:  Solving for T, Initial residual = 0, Final residual = 0, No Iterations 0
diagonal:  Solving for T, Initial residual = 0, Final residual = 0, No Iterations 0
 T goes from min(T) [0 0 0 0 0 0 0] -0.0914426 to max(T) [0 0 0 0 0 0 0] 0.732153

ExecutionTime = 158.68 s  ClockTime = 1997 s

End

