/*---------------------------------------------------------------------------*\
  =========                 |
  \\      /  F ield         | OpenFOAM: The Open Source CFD Toolbox
   \\    /   O peration     | Website:  https://openfoam.org
    \\  /    A nd           | Version:  7
     \\/     M anipulation  |
\*---------------------------------------------------------------------------*/
Build  : 7-1ff648926f77
Exec   : scalarDeformationWithGhosts explicit -case orthogonal/120x60/c05_explicit
Date   : Aug 20 2020
Time   : 11:40:14
Host   : "cullen"
PID    : 1440
I/O    : uncollated
Case   : orthogonal/120x60/c05_explicit
nProcs : 1
sigFpe : Enabling floating point exception trapping (FOAM_SIGFPE).
fileModificationChecking : Monitoring run-time modified files using timeStampMaster (fileModificationSkew 10)
allowSystemOperations : Allowing user-supplied system call operations

// * * * * * * * * * * * * * * * * * * * * * * * * * * * * * * * * * * * * * //
Create time

--> FOAM Warning : 
    From function void* Foam::dlOpen(const Foam::fileName&, bool)
    in file POSIX.C at line 1251
    dlopen error : libfiniteVolumeAtmos.so: cannot open shared object file: No such file or directory
--> FOAM Warning : 
    From function bool Foam::dlLibraryTable::open(const Foam::fileName&, bool)
    in file db/dynamicLibrary/dlLibraryTable/dlLibraryTable.C at line 105
    could not load "libfiniteVolumeAtmos.so"
Create mesh for time = 0

Reading field T

Reading fields phi (compulsory), U and Uf (optional)

Calculating owner stencils
Calculating neighbour stencils

Calculating scalar transport

Courant Number mean: 0.187253 max: 0.367645
Time = 0.005
Courant Number mean: 0.187248 max: 0.367685
diagonal:  Solving for T, Initial residual = 0, Final residual = 0, No Iterations 0
diagonal:  Solving for T, Initial residual = 0, Final residual = 0, No Iterations 0
diagonal:  Solving for T, Initial residual = 0, Final residual = 0, No Iterations 0
diagonal:  Solving for T, Initial residual = 0, Final residual = 0, No Iterations 0
 T goes from min(T) [0 0 0 0 0 0 0] 1.49062e-20 to max(T) [0 0 0 0 0 0 0] 0.951445

ExecutionTime = 2.08 s  ClockTime = 2 s

Time = 0.01
Courant Number mean: 0.187233 max: 0.367697
diagonal:  Solving for T, Initial residual = 0, Final residual = 0, No Iterations 0
diagonal:  Solving for T, Initial residual = 0, Final residual = 0, No Iterations 0
diagonal:  Solving for T, Initial residual = 0, Final residual = 0, No Iterations 0
diagonal:  Solving for T, Initial residual = 0, Final residual = 0, No Iterations 0
 T goes from min(T) [0 0 0 0 0 0 0] 1.45688e-20 to max(T) [0 0 0 0 0 0 0] 0.953227

ExecutionTime = 2.23 s  ClockTime = 2 s

Time = 0.015
Courant Number mean: 0.187205 max: 0.367681
diagonal:  Solving for T, Initial residual = 0, Final residual = 0, No Iterations 0
diagonal:  Solving for T, Initial residual = 0, Final residual = 0, No Iterations 0
diagonal:  Solving for T, Initial residual = 0, Final residual = 0, No Iterations 0
diagonal:  Solving for T, Initial residual = 0, Final residual = 0, No Iterations 0
 T goes from min(T) [0 0 0 0 0 0 0] 1.52555e-20 to max(T) [0 0 0 0 0 0 0] 0.95397

ExecutionTime = 2.38 s  ClockTime = 2 s

Time = 0.02
Courant Number mean: 0.187168 max: 0.367637
diagonal:  Solving for T, Initial residual = 0, Final residual = 0, No Iterations 0
diagonal:  Solving for T, Initial residual = 0, Final residual = 0, No Iterations 0
diagonal:  Solving for T, Initial residual = 0, Final residual = 0, No Iterations 0
diagonal:  Solving for T, Initial residual = 0, Final residual = 0, No Iterations 0
 T goes from min(T) [0 0 0 0 0 0 0] 1.70481e-20 to max(T) [0 0 0 0 0 0 0] 0.953632

ExecutionTime = 2.53 s  ClockTime = 3 s

Time = 0.025
Courant Number mean: 0.187188 max: 0.367653
diagonal:  Solving for T, Initial residual = 0, Final residual = 0, No Iterations 0
diagonal:  Solving for T, Initial residual = 0, Final residual = 0, No Iterations 0
diagonal:  Solving for T, Initial residual = 0, Final residual = 0, No Iterations 0
diagonal:  Solving for T, Initial residual = 0, Final residual = 0, No Iterations 0
 T goes from min(T) [0 0 0 0 0 0 0] 2.00672e-20 to max(T) [0 0 0 0 0 0 0] 0.952737

ExecutionTime = 2.69 s  ClockTime = 3 s

Time = 0.03
Courant Number mean: 0.187211 max: 0.367658
diagonal:  Solving for T, Initial residual = 0, Final residual = 0, No Iterations 0
diagonal:  Solving for T, Initial residual = 0, Final residual = 0, No Iterations 0
diagonal:  Solving for T, Initial residual = 0, Final residual = 0, No Iterations 0
diagonal:  Solving for T, Initial residual = 0, Final residual = 0, No Iterations 0
 T goes from min(T) [0 0 0 0 0 0 0] 2.44769e-20 to max(T) [0 0 0 0 0 0 0] 0.950916

ExecutionTime = 2.85 s  ClockTime = 3 s

Time = 0.035
Courant Number mean: 0.187224 max: 0.367635
diagonal:  Solving for T, Initial residual = 0, Final residual = 0, No Iterations 0
diagonal:  Solving for T, Initial residual = 0, Final residual = 0, No Iterations 0
diagonal:  Solving for T, Initial residual = 0, Final residual = 0, No Iterations 0
diagonal:  Solving for T, Initial residual = 0, Final residual = 0, No Iterations 0
 T goes from min(T) [0 0 0 0 0 0 0] 2.28606e-20 to max(T) [0 0 0 0 0 0 0] 0.951245

ExecutionTime = 3 s  ClockTime = 3 s

Time = 0.04
Courant Number mean: 0.187224 max: 0.367583
diagonal:  Solving for T, Initial residual = 0, Final residual = 0, No Iterations 0
diagonal:  Solving for T, Initial residual = 0, Final residual = 0, No Iterations 0
diagonal:  Solving for T, Initial residual = 0, Final residual = 0, No Iterations 0
diagonal:  Solving for T, Initial residual = 0, Final residual = 0, No Iterations 0
 T goes from min(T) [0 0 0 0 0 0 0] 2.21463e-20 to max(T) [0 0 0 0 0 0 0] 0.951416

ExecutionTime = 3.15 s  ClockTime = 3 s

Time = 0.045
Courant Number mean: 0.187215 max: 0.367576
diagonal:  Solving for T, Initial residual = 0, Final residual = 0, No Iterations 0
diagonal:  Solving for T, Initial residual = 0, Final residual = 0, No Iterations 0
diagonal:  Solving for T, Initial residual = 0, Final residual = 0, No Iterations 0
diagonal:  Solving for T, Initial residual = 0, Final residual = 0, No Iterations 0
 T goes from min(T) [0 0 0 0 0 0 0] 2.26012e-20 to max(T) [0 0 0 0 0 0 0] 0.952222

ExecutionTime = 3.3 s  ClockTime = 3 s

Time = 0.05
Courant Number mean: 0.187196 max: 0.367578
diagonal:  Solving for T, Initial residual = 0, Final residual = 0, No Iterations 0
diagonal:  Solving for T, Initial residual = 0, Final residual = 0, No Iterations 0
diagonal:  Solving for T, Initial residual = 0, Final residual = 0, No Iterations 0
diagonal:  Solving for T, Initial residual = 0, Final residual = 0, No Iterations 0
 T goes from min(T) [0 0 0 0 0 0 0] 2.42941e-20 to max(T) [0 0 0 0 0 0 0] 0.953022

ExecutionTime = 3.46 s  ClockTime = 3 s

Time = 0.055
Courant Number mean: 0.187165 max: 0.367551
diagonal:  Solving for T, Initial residual = 0, Final residual = 0, No Iterations 0
diagonal:  Solving for T, Initial residual = 0, Final residual = 0, No Iterations 0
diagonal:  Solving for T, Initial residual = 0, Final residual = 0, No Iterations 0
diagonal:  Solving for T, Initial residual = 0, Final residual = 0, No Iterations 0
 T goes from min(T) [0 0 0 0 0 0 0] 2.73319e-20 to max(T) [0 0 0 0 0 0 0] 0.952681

ExecutionTime = 3.61 s  ClockTime = 4 s

Time = 0.06
Courant Number mean: 0.187123 max: 0.367496
diagonal:  Solving for T, Initial residual = 0, Final residual = 0, No Iterations 0
diagonal:  Solving for T, Initial residual = 0, Final residual = 0, No Iterations 0
diagonal:  Solving for T, Initial residual = 0, Final residual = 0, No Iterations 0
diagonal:  Solving for T, Initial residual = 0, Final residual = 0, No Iterations 0
 T goes from min(T) [0 0 0 0 0 0 0] 3.18629e-20 to max(T) [0 0 0 0 0 0 0] 0.95116

ExecutionTime = 3.77 s  ClockTime = 4 s

Time = 0.065
Courant Number mean: 0.187112 max: 0.367465
diagonal:  Solving for T, Initial residual = 0, Final residual = 0, No Iterations 0
diagonal:  Solving for T, Initial residual = 0, Final residual = 0, No Iterations 0
diagonal:  Solving for T, Initial residual = 0, Final residual = 0, No Iterations 0
diagonal:  Solving for T, Initial residual = 0, Final residual = 0, No Iterations 0
 T goes from min(T) [0 0 0 0 0 0 0] 3.15773e-20 to max(T) [0 0 0 0 0 0 0] 0.952082

ExecutionTime = 3.92 s  ClockTime = 4 s

Time = 0.07
Courant Number mean: 0.187132 max: 0.367459
diagonal:  Solving for T, Initial residual = 0, Final residual = 0, No Iterations 0
diagonal:  Solving for T, Initial residual = 0, Final residual = 0, No Iterations 0
diagonal:  Solving for T, Initial residual = 0, Final residual = 0, No Iterations 0
diagonal:  Solving for T, Initial residual = 0, Final residual = 0, No Iterations 0
 T goes from min(T) [0 0 0 0 0 0 0] 3.01407e-20 to max(T) [0 0 0 0 0 0 0] 0.953106

ExecutionTime = 4.07 s  ClockTime = 4 s

Time = 0.075
Courant Number mean: 0.187141 max: 0.367425
diagonal:  Solving for T, Initial residual = 0, Final residual = 0, No Iterations 0
diagonal:  Solving for T, Initial residual = 0, Final residual = 0, No Iterations 0
diagonal:  Solving for T, Initial residual = 0, Final residual = 0, No Iterations 0
diagonal:  Solving for T, Initial residual = 0, Final residual = 0, No Iterations 0
 T goes from min(T) [0 0 0 0 0 0 0] 3.00247e-20 to max(T) [0 0 0 0 0 0 0] 0.952935

ExecutionTime = 4.23 s  ClockTime = 4 s

Time = 0.08
Courant Number mean: 0.187137 max: 0.367363
diagonal:  Solving for T, Initial residual = 0, Final residual = 0, No Iterations 0
diagonal:  Solving for T, Initial residual = 0, Final residual = 0, No Iterations 0
diagonal:  Solving for T, Initial residual = 0, Final residual = 0, No Iterations 0
diagonal:  Solving for T, Initial residual = 0, Final residual = 0, No Iterations 0
 T goes from min(T) [0 0 0 0 0 0 0] 3.12692e-20 to max(T) [0 0 0 0 0 0 0] 0.951952

ExecutionTime = 4.38 s  ClockTime = 4 s

Time = 0.085
Courant Number mean: 0.187124 max: 0.367308
diagonal:  Solving for T, Initial residual = 0, Final residual = 0, No Iterations 0
diagonal:  Solving for T, Initial residual = 0, Final residual = 0, No Iterations 0
diagonal:  Solving for T, Initial residual = 0, Final residual = 0, No Iterations 0
diagonal:  Solving for T, Initial residual = 0, Final residual = 0, No Iterations 0
 T goes from min(T) [0 0 0 0 0 0 0] 3.39534e-20 to max(T) [0 0 0 0 0 0 0] 0.95072

ExecutionTime = 4.54 s  ClockTime = 5 s

Time = 0.09
Courant Number mean: 0.187102 max: 0.367299
diagonal:  Solving for T, Initial residual = 0, Final residual = 0, No Iterations 0
diagonal:  Solving for T, Initial residual = 0, Final residual = 0, No Iterations 0
diagonal:  Solving for T, Initial residual = 0, Final residual = 0, No Iterations 0
diagonal:  Solving for T, Initial residual = 0, Final residual = 0, No Iterations 0
 T goes from min(T) [0 0 0 0 0 0 0] 3.8198e-20 to max(T) [0 0 0 0 0 0 0] 0.950594

ExecutionTime = 4.7 s  ClockTime = 5 s

Time = 0.095
Courant Number mean: 0.187067 max: 0.367261
diagonal:  Solving for T, Initial residual = 0, Final residual = 0, No Iterations 0
diagonal:  Solving for T, Initial residual = 0, Final residual = 0, No Iterations 0
diagonal:  Solving for T, Initial residual = 0, Final residual = 0, No Iterations 0
diagonal:  Solving for T, Initial residual = 0, Final residual = 0, No Iterations 0
 T goes from min(T) [0 0 0 0 0 0 0] 4.15648e-20 to max(T) [0 0 0 0 0 0 0] 0.951906

ExecutionTime = 4.85 s  ClockTime = 5 s

Time = 0.1
Courant Number mean: 0.187021 max: 0.367195
diagonal:  Solving for T, Initial residual = 0, Final residual = 0, No Iterations 0
diagonal:  Solving for T, Initial residual = 0, Final residual = 0, No Iterations 0
diagonal:  Solving for T, Initial residual = 0, Final residual = 0, No Iterations 0
diagonal:  Solving for T, Initial residual = 0, Final residual = 0, No Iterations 0
 T goes from min(T) [0 0 0 0 0 0 0] 3.89571e-20 to max(T) [0 0 0 0 0 0 0] 0.953306

ExecutionTime = 5.01 s  ClockTime = 5 s

Time = 0.105
Courant Number mean: 0.186979 max: 0.367118
diagonal:  Solving for T, Initial residual = 0, Final residual = 0, No Iterations 0
diagonal:  Solving for T, Initial residual = 0, Final residual = 0, No Iterations 0
diagonal:  Solving for T, Initial residual = 0, Final residual = 0, No Iterations 0
diagonal:  Solving for T, Initial residual = 0, Final residual = 0, No Iterations 0
 T goes from min(T) [0 0 0 0 0 0 0] 3.7854e-20 to max(T) [0 0 0 0 0 0 0] 0.95383

ExecutionTime = 5.16 s  ClockTime = 5 s

Time = 0.11
Courant Number mean: 0.186995 max: 0.367101
diagonal:  Solving for T, Initial residual = 0, Final residual = 0, No Iterations 0
diagonal:  Solving for T, Initial residual = 0, Final residual = 0, No Iterations 0
diagonal:  Solving for T, Initial residual = 0, Final residual = 0, No Iterations 0
diagonal:  Solving for T, Initial residual = 0, Final residual = 0, No Iterations 0
 T goes from min(T) [0 0 0 0 0 0 0] 3.82525e-20 to max(T) [0 0 0 0 0 0 0] 0.953811

ExecutionTime = 5.32 s  ClockTime = 5 s

Time = 0.115
Courant Number mean: 0.187 max: 0.367056
diagonal:  Solving for T, Initial residual = 0, Final residual = 0, No Iterations 0
diagonal:  Solving for T, Initial residual = 0, Final residual = 0, No Iterations 0
diagonal:  Solving for T, Initial residual = 0, Final residual = 0, No Iterations 0
diagonal:  Solving for T, Initial residual = 0, Final residual = 0, No Iterations 0
 T goes from min(T) [0 0 0 0 0 0 0] 4.01919e-20 to max(T) [0 0 0 0 0 0 0] 0.952672

ExecutionTime = 5.47 s  ClockTime = 5 s

Time = 0.12
Courant Number mean: 0.186994 max: 0.366983
diagonal:  Solving for T, Initial residual = 0, Final residual = 0, No Iterations 0
diagonal:  Solving for T, Initial residual = 0, Final residual = 0, No Iterations 0
diagonal:  Solving for T, Initial residual = 0, Final residual = 0, No Iterations 0
diagonal:  Solving for T, Initial residual = 0, Final residual = 0, No Iterations 0
 T goes from min(T) [0 0 0 0 0 0 0] 4.37545e-20 to max(T) [0 0 0 0 0 0 0] 0.95051

ExecutionTime = 5.63 s  ClockTime = 6 s

Time = 0.125
Courant Number mean: 0.186976 max: 0.366881
diagonal:  Solving for T, Initial residual = 0, Final residual = 0, No Iterations 0
diagonal:  Solving for T, Initial residual = 0, Final residual = 0, No Iterations 0
diagonal:  Solving for T, Initial residual = 0, Final residual = 0, No Iterations 0
diagonal:  Solving for T, Initial residual = 0, Final residual = 0, No Iterations 0
 T goes from min(T) [0 0 0 0 0 0 0] 4.90667e-20 to max(T) [0 0 0 0 0 0 0] 0.951099

ExecutionTime = 5.78 s  ClockTime = 6 s

Time = 0.13
Courant Number mean: 0.186949 max: 0.366861
diagonal:  Solving for T, Initial residual = 0, Final residual = 0, No Iterations 0
diagonal:  Solving for T, Initial residual = 0, Final residual = 0, No Iterations 0
diagonal:  Solving for T, Initial residual = 0, Final residual = 0, No Iterations 0
diagonal:  Solving for T, Initial residual = 0, Final residual = 0, No Iterations 0
 T goes from min(T) [0 0 0 0 0 0 0] 4.91094e-20 to max(T) [0 0 0 0 0 0 0] 0.95293

ExecutionTime = 5.93 s  ClockTime = 6 s

Time = 0.135
Courant Number mean: 0.186912 max: 0.366812
diagonal:  Solving for T, Initial residual = 0, Final residual = 0, No Iterations 0
diagonal:  Solving for T, Initial residual = 0, Final residual = 0, No Iterations 0
diagonal:  Solving for T, Initial residual = 0, Final residual = 0, No Iterations 0
diagonal:  Solving for T, Initial residual = 0, Final residual = 0, No Iterations 0
 T goes from min(T) [0 0 0 0 0 0 0] 4.6552e-20 to max(T) [0 0 0 0 0 0 0] 0.953924

ExecutionTime = 6.09 s  ClockTime = 6 s

Time = 0.14
Courant Number mean: 0.186862 max: 0.366735
diagonal:  Solving for T, Initial residual = 0, Final residual = 0, No Iterations 0
diagonal:  Solving for T, Initial residual = 0, Final residual = 0, No Iterations 0
diagonal:  Solving for T, Initial residual = 0, Final residual = 0, No Iterations 0
diagonal:  Solving for T, Initial residual = 0, Final residual = 0, No Iterations 0
 T goes from min(T) [0 0 0 0 0 0 0] 4.56788e-20 to max(T) [0 0 0 0 0 0 0] 0.954112

ExecutionTime = 6.24 s  ClockTime = 6 s

Time = 0.145
Courant Number mean: 0.186803 max: 0.36663
diagonal:  Solving for T, Initial residual = 0, Final residual = 0, No Iterations 0
diagonal:  Solving for T, Initial residual = 0, Final residual = 0, No Iterations 0
diagonal:  Solving for T, Initial residual = 0, Final residual = 0, No Iterations 0
diagonal:  Solving for T, Initial residual = 0, Final residual = 0, No Iterations 0
 T goes from min(T) [0 0 0 0 0 0 0] 4.64774e-20 to max(T) [0 0 0 0 0 0 0] 0.953532

ExecutionTime = 6.39 s  ClockTime = 6 s

Time = 0.15
Courant Number mean: 0.186801 max: 0.366584
diagonal:  Solving for T, Initial residual = 0, Final residual = 0, No Iterations 0
diagonal:  Solving for T, Initial residual = 0, Final residual = 0, No Iterations 0
diagonal:  Solving for T, Initial residual = 0, Final residual = 0, No Iterations 0
diagonal:  Solving for T, Initial residual = 0, Final residual = 0, No Iterations 0
 T goes from min(T) [0 0 0 0 0 0 0] 4.89813e-20 to max(T) [0 0 0 0 0 0 0] 0.952422

ExecutionTime = 6.55 s  ClockTime = 7 s

Time = 0.155
Courant Number mean: 0.186802 max: 0.366528
diagonal:  Solving for T, Initial residual = 0, Final residual = 0, No Iterations 0
diagonal:  Solving for T, Initial residual = 0, Final residual = 0, No Iterations 0
diagonal:  Solving for T, Initial residual = 0, Final residual = 0, No Iterations 0
diagonal:  Solving for T, Initial residual = 0, Final residual = 0, No Iterations 0
 T goes from min(T) [0 0 0 0 0 0 0] 5.32692e-20 to max(T) [0 0 0 0 0 0 0] 0.950528

ExecutionTime = 6.7 s  ClockTime = 7 s

Time = 0.16
Courant Number mean: 0.186792 max: 0.366444
diagonal:  Solving for T, Initial residual = 0, Final residual = 0, No Iterations 0
diagonal:  Solving for T, Initial residual = 0, Final residual = 0, No Iterations 0
diagonal:  Solving for T, Initial residual = 0, Final residual = 0, No Iterations 0
diagonal:  Solving for T, Initial residual = 0, Final residual = 0, No Iterations 0
 T goes from min(T) [0 0 0 0 0 0 0] 5.94666e-20 to max(T) [0 0 0 0 0 0 0] 0.952134

ExecutionTime = 6.86 s  ClockTime = 7 s

Time = 0.165
Courant Number mean: 0.186771 max: 0.366332
diagonal:  Solving for T, Initial residual = 0, Final residual = 0, No Iterations 0
diagonal:  Solving for T, Initial residual = 0, Final residual = 0, No Iterations 0
diagonal:  Solving for T, Initial residual = 0, Final residual = 0, No Iterations 0
diagonal:  Solving for T, Initial residual = 0, Final residual = 0, No Iterations 0
 T goes from min(T) [0 0 0 0 0 0 0] 5.67441e-20 to max(T) [0 0 0 0 0 0 0] 0.953521

ExecutionTime = 7.01 s  ClockTime = 7 s

Time = 0.17
Courant Number mean: 0.18674 max: 0.366264
diagonal:  Solving for T, Initial residual = 0, Final residual = 0, No Iterations 0
diagonal:  Solving for T, Initial residual = 0, Final residual = 0, No Iterations 0
diagonal:  Solving for T, Initial residual = 0, Final residual = 0, No Iterations 0
diagonal:  Solving for T, Initial residual = 0, Final residual = 0, No Iterations 0
 T goes from min(T) [0 0 0 0 0 0 0] 5.41233e-20 to max(T) [0 0 0 0 0 0 0] 0.95414

ExecutionTime = 7.16 s  ClockTime = 7 s

Time = 0.175
Courant Number mean: 0.186698 max: 0.366204
diagonal:  Solving for T, Initial residual = 0, Final residual = 0, No Iterations 0
diagonal:  Solving for T, Initial residual = 0, Final residual = 0, No Iterations 0
diagonal:  Solving for T, Initial residual = 0, Final residual = 0, No Iterations 0
diagonal:  Solving for T, Initial residual = 0, Final residual = 0, No Iterations 0
 T goes from min(T) [0 0 0 0 0 0 0] 5.33593e-20 to max(T) [0 0 0 0 0 0 0] 0.954025

ExecutionTime = 7.32 s  ClockTime = 7 s

Time = 0.18
Courant Number mean: 0.186646 max: 0.366116
diagonal:  Solving for T, Initial residual = 0, Final residual = 0, No Iterations 0
diagonal:  Solving for T, Initial residual = 0, Final residual = 0, No Iterations 0
diagonal:  Solving for T, Initial residual = 0, Final residual = 0, No Iterations 0
diagonal:  Solving for T, Initial residual = 0, Final residual = 0, No Iterations 0
 T goes from min(T) [0 0 0 0 0 0 0] 5.44253e-20 to max(T) [0 0 0 0 0 0 0] 0.953213

ExecutionTime = 7.47 s  ClockTime = 7 s

Time = 0.185
Courant Number mean: 0.186582 max: 0.366
diagonal:  Solving for T, Initial residual = 0, Final residual = 0, No Iterations 0
diagonal:  Solving for T, Initial residual = 0, Final residual = 0, No Iterations 0
diagonal:  Solving for T, Initial residual = 0, Final residual = 0, No Iterations 0
diagonal:  Solving for T, Initial residual = 0, Final residual = 0, No Iterations 0
 T goes from min(T) [0 0 0 0 0 0 0] 5.7343e-20 to max(T) [0 0 0 0 0 0 0] 0.951738

ExecutionTime = 7.63 s  ClockTime = 8 s

Time = 0.19
Courant Number mean: 0.18655 max: 0.365909
diagonal:  Solving for T, Initial residual = 0, Final residual = 0, No Iterations 0
diagonal:  Solving for T, Initial residual = 0, Final residual = 0, No Iterations 0
diagonal:  Solving for T, Initial residual = 0, Final residual = 0, No Iterations 0
diagonal:  Solving for T, Initial residual = 0, Final residual = 0, No Iterations 0
 T goes from min(T) [0 0 0 0 0 0 0] 6.21824e-20 to max(T) [0 0 0 0 0 0 0] 0.951105

ExecutionTime = 7.78 s  ClockTime = 8 s

Time = 0.195
Courant Number mean: 0.186547 max: 0.365842
diagonal:  Solving for T, Initial residual = 0, Final residual = 0, No Iterations 0
diagonal:  Solving for T, Initial residual = 0, Final residual = 0, No Iterations 0
diagonal:  Solving for T, Initial residual = 0, Final residual = 0, No Iterations 0
diagonal:  Solving for T, Initial residual = 0, Final residual = 0, No Iterations 0
 T goes from min(T) [0 0 0 0 0 0 0] 6.90614e-20 to max(T) [0 0 0 0 0 0 0] 0.952842

ExecutionTime = 7.94 s  ClockTime = 8 s

Time = 0.2
Courant Number mean: 0.186533 max: 0.365747
diagonal:  Solving for T, Initial residual = 0, Final residual = 0, No Iterations 0
diagonal:  Solving for T, Initial residual = 0, Final residual = 0, No Iterations 0
diagonal:  Solving for T, Initial residual = 0, Final residual = 0, No Iterations 0
diagonal:  Solving for T, Initial residual = 0, Final residual = 0, No Iterations 0
 T goes from min(T) [0 0 0 0 0 0 0] 6.43028e-20 to max(T) [0 0 0 0 0 0 0] 0.953848

ExecutionTime = 8.09 s  ClockTime = 8 s

Time = 0.205
Courant Number mean: 0.186508 max: 0.365624
diagonal:  Solving for T, Initial residual = 0, Final residual = 0, No Iterations 0
diagonal:  Solving for T, Initial residual = 0, Final residual = 0, No Iterations 0
diagonal:  Solving for T, Initial residual = 0, Final residual = 0, No Iterations 0
diagonal:  Solving for T, Initial residual = 0, Final residual = 0, No Iterations 0
 T goes from min(T) [0 0 0 0 0 0 0] 6.14974e-20 to max(T) [0 0 0 0 0 0 0] 0.954156

ExecutionTime = 8.25 s  ClockTime = 8 s

Time = 0.21
Courant Number mean: 0.186473 max: 0.365509
diagonal:  Solving for T, Initial residual = 0, Final residual = 0, No Iterations 0
diagonal:  Solving for T, Initial residual = 0, Final residual = 0, No Iterations 0
diagonal:  Solving for T, Initial residual = 0, Final residual = 0, No Iterations 0
diagonal:  Solving for T, Initial residual = 0, Final residual = 0, No Iterations 0
 T goes from min(T) [0 0 0 0 0 0 0] 6.07142e-20 to max(T) [0 0 0 0 0 0 0] 0.953798

ExecutionTime = 8.4 s  ClockTime = 8 s

Time = 0.215
Courant Number mean: 0.186428 max: 0.365438
diagonal:  Solving for T, Initial residual = 0, Final residual = 0, No Iterations 0
diagonal:  Solving for T, Initial residual = 0, Final residual = 0, No Iterations 0
diagonal:  Solving for T, Initial residual = 0, Final residual = 0, No Iterations 0
diagonal:  Solving for T, Initial residual = 0, Final residual = 0, No Iterations 0
 T goes from min(T) [0 0 0 0 0 0 0] 6.19067e-20 to max(T) [0 0 0 0 0 0 0] 0.952808

ExecutionTime = 8.56 s  ClockTime = 9 s

Time = 0.22
Courant Number mean: 0.186372 max: 0.365339
diagonal:  Solving for T, Initial residual = 0, Final residual = 0, No Iterations 0
diagonal:  Solving for T, Initial residual = 0, Final residual = 0, No Iterations 0
diagonal:  Solving for T, Initial residual = 0, Final residual = 0, No Iterations 0
diagonal:  Solving for T, Initial residual = 0, Final residual = 0, No Iterations 0
 T goes from min(T) [0 0 0 0 0 0 0] 6.508e-20 to max(T) [0 0 0 0 0 0 0] 0.951222

ExecutionTime = 8.72 s  ClockTime = 9 s

Time = 0.225
Courant Number mean: 0.186305 max: 0.365212
diagonal:  Solving for T, Initial residual = 0, Final residual = 0, No Iterations 0
diagonal:  Solving for T, Initial residual = 0, Final residual = 0, No Iterations 0
diagonal:  Solving for T, Initial residual = 0, Final residual = 0, No Iterations 0
diagonal:  Solving for T, Initial residual = 0, Final residual = 0, No Iterations 0
 T goes from min(T) [0 0 0 0 0 0 0] 7.02896e-20 to max(T) [0 0 0 0 0 0 0] 0.951866

ExecutionTime = 8.87 s  ClockTime = 9 s

Time = 0.23
Courant Number mean: 0.186242 max: 0.365075
diagonal:  Solving for T, Initial residual = 0, Final residual = 0, No Iterations 0
diagonal:  Solving for T, Initial residual = 0, Final residual = 0, No Iterations 0
diagonal:  Solving for T, Initial residual = 0, Final residual = 0, No Iterations 0
diagonal:  Solving for T, Initial residual = 0, Final residual = 0, No Iterations 0
 T goes from min(T) [0 0 0 0 0 0 0] 7.70832e-20 to max(T) [0 0 0 0 0 0 0] 0.953248

ExecutionTime = 9.02 s  ClockTime = 9 s

Time = 0.235
Courant Number mean: 0.186235 max: 0.364997
diagonal:  Solving for T, Initial residual = 0, Final residual = 0, No Iterations 0
diagonal:  Solving for T, Initial residual = 0, Final residual = 0, No Iterations 0
diagonal:  Solving for T, Initial residual = 0, Final residual = 0, No Iterations 0
diagonal:  Solving for T, Initial residual = 0, Final residual = 0, No Iterations 0
 T goes from min(T) [0 0 0 0 0 0 0] 7.166e-20 to max(T) [0 0 0 0 0 0 0] 0.953964

ExecutionTime = 9.18 s  ClockTime = 9 s

Time = 0.24
Courant Number mean: 0.186216 max: 0.364891
diagonal:  Solving for T, Initial residual = 0, Final residual = 0, No Iterations 0
diagonal:  Solving for T, Initial residual = 0, Final residual = 0, No Iterations 0
diagonal:  Solving for T, Initial residual = 0, Final residual = 0, No Iterations 0
diagonal:  Solving for T, Initial residual = 0, Final residual = 0, No Iterations 0
 T goes from min(T) [0 0 0 0 0 0 0] 6.8547e-20 to max(T) [0 0 0 0 0 0 0] 0.954045

ExecutionTime = 9.34 s  ClockTime = 9 s

Time = 0.245
Courant Number mean: 0.186189 max: 0.364757
diagonal:  Solving for T, Initial residual = 0, Final residual = 0, No Iterations 0
diagonal:  Solving for T, Initial residual = 0, Final residual = 0, No Iterations 0
diagonal:  Solving for T, Initial residual = 0, Final residual = 0, No Iterations 0
diagonal:  Solving for T, Initial residual = 0, Final residual = 0, No Iterations 0
 T goes from min(T) [0 0 0 0 0 0 0] 6.76146e-20 to max(T) [0 0 0 0 0 0 0] 0.953524

ExecutionTime = 9.5 s  ClockTime = 9 s

Time = 0.25
Courant Number mean: 0.18615 max: 0.364596
diagonal:  Solving for T, Initial residual = 0, Final residual = 0, No Iterations 0
diagonal:  Solving for T, Initial residual = 0, Final residual = 0, No Iterations 0
diagonal:  Solving for T, Initial residual = 0, Final residual = 0, No Iterations 0
diagonal:  Solving for T, Initial residual = 0, Final residual = 0, No Iterations 0
 T goes from min(T) [0 0 0 0 0 0 0] 6.87917e-20 to max(T) [0 0 0 0 0 0 0] 0.952432

ExecutionTime = 9.66 s  ClockTime = 10 s

Time = 0.255
Courant Number mean: 0.186101 max: 0.364514
diagonal:  Solving for T, Initial residual = 0, Final residual = 0, No Iterations 0
diagonal:  Solving for T, Initial residual = 0, Final residual = 0, No Iterations 0
diagonal:  Solving for T, Initial residual = 0, Final residual = 0, No Iterations 0
diagonal:  Solving for T, Initial residual = 0, Final residual = 0, No Iterations 0
 T goes from min(T) [0 0 0 0 0 0 0] 7.20622e-20 to max(T) [0 0 0 0 0 0 0] 0.950849

ExecutionTime = 9.83 s  ClockTime = 10 s

Time = 0.26
Courant Number mean: 0.186041 max: 0.364404
diagonal:  Solving for T, Initial residual = 0, Final residual = 0, No Iterations 0
diagonal:  Solving for T, Initial residual = 0, Final residual = 0, No Iterations 0
diagonal:  Solving for T, Initial residual = 0, Final residual = 0, No Iterations 0
diagonal:  Solving for T, Initial residual = 0, Final residual = 0, No Iterations 0
 T goes from min(T) [0 0 0 0 0 0 0] 7.74626e-20 to max(T) [0 0 0 0 0 0 0] 0.951959

ExecutionTime = 9.99 s  ClockTime = 10 s

Time = 0.265
Courant Number mean: 0.185971 max: 0.364267
diagonal:  Solving for T, Initial residual = 0, Final residual = 0, No Iterations 0
diagonal:  Solving for T, Initial residual = 0, Final residual = 0, No Iterations 0
diagonal:  Solving for T, Initial residual = 0, Final residual = 0, No Iterations 0
diagonal:  Solving for T, Initial residual = 0, Final residual = 0, No Iterations 0
 T goes from min(T) [0 0 0 0 0 0 0] 8.47647e-20 to max(T) [0 0 0 0 0 0 0] 0.9531

ExecutionTime = 10.15 s  ClockTime = 10 s

Time = 0.27
Courant Number mean: 0.185892 max: 0.364102
diagonal:  Solving for T, Initial residual = 0, Final residual = 0, No Iterations 0
diagonal:  Solving for T, Initial residual = 0, Final residual = 0, No Iterations 0
diagonal:  Solving for T, Initial residual = 0, Final residual = 0, No Iterations 0
diagonal:  Solving for T, Initial residual = 0, Final residual = 0, No Iterations 0
 T goes from min(T) [0 0 0 0 0 0 0] 7.87289e-20 to max(T) [0 0 0 0 0 0 0] 0.953635

ExecutionTime = 10.32 s  ClockTime = 10 s

Time = 0.275
Courant Number mean: 0.185867 max: 0.363995
diagonal:  Solving for T, Initial residual = 0, Final residual = 0, No Iterations 0
diagonal:  Solving for T, Initial residual = 0, Final residual = 0, No Iterations 0
diagonal:  Solving for T, Initial residual = 0, Final residual = 0, No Iterations 0
diagonal:  Solving for T, Initial residual = 0, Final residual = 0, No Iterations 0
 T goes from min(T) [0 0 0 0 0 0 0] 7.51887e-20 to max(T) [0 0 0 0 0 0 0] 0.953816

ExecutionTime = 10.47 s  ClockTime = 10 s

Time = 0.28
Courant Number mean: 0.185844 max: 0.363878
diagonal:  Solving for T, Initial residual = 0, Final residual = 0, No Iterations 0
diagonal:  Solving for T, Initial residual = 0, Final residual = 0, No Iterations 0
diagonal:  Solving for T, Initial residual = 0, Final residual = 0, No Iterations 0
diagonal:  Solving for T, Initial residual = 0, Final residual = 0, No Iterations 0
 T goes from min(T) [0 0 0 0 0 0 0] 7.39813e-20 to max(T) [0 0 0 0 0 0 0] 0.953001

ExecutionTime = 10.63 s  ClockTime = 11 s

Time = 0.285
Courant Number mean: 0.185812 max: 0.363734
diagonal:  Solving for T, Initial residual = 0, Final residual = 0, No Iterations 0
diagonal:  Solving for T, Initial residual = 0, Final residual = 0, No Iterations 0
diagonal:  Solving for T, Initial residual = 0, Final residual = 0, No Iterations 0
diagonal:  Solving for T, Initial residual = 0, Final residual = 0, No Iterations 0
 T goes from min(T) [0 0 0 0 0 0 0] 7.50066e-20 to max(T) [0 0 0 0 0 0 0] 0.951893

ExecutionTime = 10.78 s  ClockTime = 11 s

Time = 0.29
Courant Number mean: 0.185771 max: 0.363562
diagonal:  Solving for T, Initial residual = 0, Final residual = 0, No Iterations 0
diagonal:  Solving for T, Initial residual = 0, Final residual = 0, No Iterations 0
diagonal:  Solving for T, Initial residual = 0, Final residual = 0, No Iterations 0
diagonal:  Solving for T, Initial residual = 0, Final residual = 0, No Iterations 0
 T goes from min(T) [0 0 0 0 0 0 0] 7.82232e-20 to max(T) [0 0 0 0 0 0 0] 0.950297

ExecutionTime = 10.94 s  ClockTime = 11 s

Time = 0.295
Courant Number mean: 0.185718 max: 0.363433
diagonal:  Solving for T, Initial residual = 0, Final residual = 0, No Iterations 0
diagonal:  Solving for T, Initial residual = 0, Final residual = 0, No Iterations 0
diagonal:  Solving for T, Initial residual = 0, Final residual = 0, No Iterations 0
diagonal:  Solving for T, Initial residual = 0, Final residual = 0, No Iterations 0
 T goes from min(T) [0 0 0 0 0 0 0] 8.36447e-20 to max(T) [0 0 0 0 0 0 0] 0.951256

ExecutionTime = 11.09 s  ClockTime = 11 s

Time = 0.3
Courant Number mean: 0.185654 max: 0.363312
diagonal:  Solving for T, Initial residual = 0, Final residual = 0, No Iterations 0
diagonal:  Solving for T, Initial residual = 0, Final residual = 0, No Iterations 0
diagonal:  Solving for T, Initial residual = 0, Final residual = 0, No Iterations 0
diagonal:  Solving for T, Initial residual = 0, Final residual = 0, No Iterations 0
 T goes from min(T) [0 0 0 0 0 0 0] 9.13385e-20 to max(T) [0 0 0 0 0 0 0] 0.952752

ExecutionTime = 11.24 s  ClockTime = 11 s

Time = 0.305
Courant Number mean: 0.18558 max: 0.363164
diagonal:  Solving for T, Initial residual = 0, Final residual = 0, No Iterations 0
diagonal:  Solving for T, Initial residual = 0, Final residual = 0, No Iterations 0
diagonal:  Solving for T, Initial residual = 0, Final residual = 0, No Iterations 0
diagonal:  Solving for T, Initial residual = 0, Final residual = 0, No Iterations 0
 T goes from min(T) [0 0 0 0 0 0 0] 8.54252e-20 to max(T) [0 0 0 0 0 0 0] 0.952792

ExecutionTime = 11.39 s  ClockTime = 11 s

Time = 0.31
Courant Number mean: 0.185498 max: 0.362988
diagonal:  Solving for T, Initial residual = 0, Final residual = 0, No Iterations 0
diagonal:  Solving for T, Initial residual = 0, Final residual = 0, No Iterations 0
diagonal:  Solving for T, Initial residual = 0, Final residual = 0, No Iterations 0
diagonal:  Solving for T, Initial residual = 0, Final residual = 0, No Iterations 0
 T goes from min(T) [0 0 0 0 0 0 0] 8.13458e-20 to max(T) [0 0 0 0 0 0 0] 0.952064

ExecutionTime = 11.55 s  ClockTime = 12 s

Time = 0.315
Courant Number mean: 0.185444 max: 0.362836
diagonal:  Solving for T, Initial residual = 0, Final residual = 0, No Iterations 0
diagonal:  Solving for T, Initial residual = 0, Final residual = 0, No Iterations 0
diagonal:  Solving for T, Initial residual = 0, Final residual = 0, No Iterations 0
diagonal:  Solving for T, Initial residual = 0, Final residual = 0, No Iterations 0
 T goes from min(T) [0 0 0 0 0 0 0] 7.97462e-20 to max(T) [0 0 0 0 0 0 0] 0.952133

ExecutionTime = 11.7 s  ClockTime = 12 s

Time = 0.32
Courant Number mean: 0.185417 max: 0.362709
diagonal:  Solving for T, Initial residual = 0, Final residual = 0, No Iterations 0
diagonal:  Solving for T, Initial residual = 0, Final residual = 0, No Iterations 0
diagonal:  Solving for T, Initial residual = 0, Final residual = 0, No Iterations 0
diagonal:  Solving for T, Initial residual = 0, Final residual = 0, No Iterations 0
 T goes from min(T) [0 0 0 0 0 0 0] 8.04936e-20 to max(T) [0 0 0 0 0 0 0] 0.952554

ExecutionTime = 11.86 s  ClockTime = 12 s

Time = 0.325
Courant Number mean: 0.18538 max: 0.362553
diagonal:  Solving for T, Initial residual = 0, Final residual = 0, No Iterations 0
diagonal:  Solving for T, Initial residual = 0, Final residual = 0, No Iterations 0
diagonal:  Solving for T, Initial residual = 0, Final residual = 0, No Iterations 0
diagonal:  Solving for T, Initial residual = 0, Final residual = 0, No Iterations 0
 T goes from min(T) [0 0 0 0 0 0 0] 8.35177e-20 to max(T) [0 0 0 0 0 0 0] 0.951459

ExecutionTime = 12.01 s  ClockTime = 12 s

Time = 0.33
Courant Number mean: 0.185335 max: 0.36237
diagonal:  Solving for T, Initial residual = 0, Final residual = 0, No Iterations 0
diagonal:  Solving for T, Initial residual = 0, Final residual = 0, No Iterations 0
diagonal:  Solving for T, Initial residual = 0, Final residual = 0, No Iterations 0
diagonal:  Solving for T, Initial residual = 0, Final residual = 0, No Iterations 0
 T goes from min(T) [0 0 0 0 0 0 0] 8.88063e-20 to max(T) [0 0 0 0 0 0 0] 0.94989

ExecutionTime = 12.16 s  ClockTime = 12 s

Time = 0.335
Courant Number mean: 0.185279 max: 0.362195
diagonal:  Solving for T, Initial residual = 0, Final residual = 0, No Iterations 0
diagonal:  Solving for T, Initial residual = 0, Final residual = 0, No Iterations 0
diagonal:  Solving for T, Initial residual = 0, Final residual = 0, No Iterations 0
diagonal:  Solving for T, Initial residual = 0, Final residual = 0, No Iterations 0
 T goes from min(T) [0 0 0 0 0 0 0] 9.64032e-20 to max(T) [0 0 0 0 0 0 0] 0.950084

ExecutionTime = 12.32 s  ClockTime = 12 s

Time = 0.34
Courant Number mean: 0.185211 max: 0.362064
diagonal:  Solving for T, Initial residual = 0, Final residual = 0, No Iterations 0
diagonal:  Solving for T, Initial residual = 0, Final residual = 0, No Iterations 0
diagonal:  Solving for T, Initial residual = 0, Final residual = 0, No Iterations 0
diagonal:  Solving for T, Initial residual = 0, Final residual = 0, No Iterations 0
 T goes from min(T) [0 0 0 0 0 0 0] 9.17225e-20 to max(T) [0 0 0 0 0 0 0] 0.951387

ExecutionTime = 12.48 s  ClockTime = 12 s

Time = 0.345
Courant Number mean: 0.185135 max: 0.361905
diagonal:  Solving for T, Initial residual = 0, Final residual = 0, No Iterations 0
diagonal:  Solving for T, Initial residual = 0, Final residual = 0, No Iterations 0
diagonal:  Solving for T, Initial residual = 0, Final residual = 0, No Iterations 0
diagonal:  Solving for T, Initial residual = 0, Final residual = 0, No Iterations 0
 T goes from min(T) [0 0 0 0 0 0 0] 8.70035e-20 to max(T) [0 0 0 0 0 0 0] 0.95316

ExecutionTime = 12.64 s  ClockTime = 13 s

Time = 0.35
Courant Number mean: 0.185048 max: 0.361718
diagonal:  Solving for T, Initial residual = 0, Final residual = 0, No Iterations 0
diagonal:  Solving for T, Initial residual = 0, Final residual = 0, No Iterations 0
diagonal:  Solving for T, Initial residual = 0, Final residual = 0, No Iterations 0
diagonal:  Solving for T, Initial residual = 0, Final residual = 0, No Iterations 0
 T goes from min(T) [0 0 0 0 0 0 0] 8.4907e-20 to max(T) [0 0 0 0 0 0 0] 0.95352

ExecutionTime = 12.8 s  ClockTime = 13 s

Time = 0.355
Courant Number mean: 0.184964 max: 0.361522
diagonal:  Solving for T, Initial residual = 0, Final residual = 0, No Iterations 0
diagonal:  Solving for T, Initial residual = 0, Final residual = 0, No Iterations 0
diagonal:  Solving for T, Initial residual = 0, Final residual = 0, No Iterations 0
diagonal:  Solving for T, Initial residual = 0, Final residual = 0, No Iterations 0
 T goes from min(T) [0 0 0 0 0 0 0] 8.52645e-20 to max(T) [0 0 0 0 0 0 0] 0.952386

ExecutionTime = 12.95 s  ClockTime = 13 s

Time = 0.36
Courant Number mean: 0.184935 max: 0.361383
diagonal:  Solving for T, Initial residual = 0, Final residual = 0, No Iterations 0
diagonal:  Solving for T, Initial residual = 0, Final residual = 0, No Iterations 0
diagonal:  Solving for T, Initial residual = 0, Final residual = 0, No Iterations 0
diagonal:  Solving for T, Initial residual = 0, Final residual = 0, No Iterations 0
 T goes from min(T) [0 0 0 0 0 0 0] 8.79739e-20 to max(T) [0 0 0 0 0 0 0] 0.951467

ExecutionTime = 13.11 s  ClockTime = 13 s

Time = 0.365
Courant Number mean: 0.184894 max: 0.361217
diagonal:  Solving for T, Initial residual = 0, Final residual = 0, No Iterations 0
diagonal:  Solving for T, Initial residual = 0, Final residual = 0, No Iterations 0
diagonal:  Solving for T, Initial residual = 0, Final residual = 0, No Iterations 0
diagonal:  Solving for T, Initial residual = 0, Final residual = 0, No Iterations 0
 T goes from min(T) [0 0 0 0 0 0 0] -9.7056e-17 to max(T) [0 0 0 0 0 0 0] 0.950345

ExecutionTime = 13.26 s  ClockTime = 13 s

Time = 0.37
Courant Number mean: 0.184845 max: 0.361023
diagonal:  Solving for T, Initial residual = 0, Final residual = 0, No Iterations 0
diagonal:  Solving for T, Initial residual = 0, Final residual = 0, No Iterations 0
diagonal:  Solving for T, Initial residual = 0, Final residual = 0, No Iterations 0
diagonal:  Solving for T, Initial residual = 0, Final residual = 0, No Iterations 0
 T goes from min(T) [0 0 0 0 0 0 0] -2.01163e-16 to max(T) [0 0 0 0 0 0 0] 0.949563

ExecutionTime = 13.42 s  ClockTime = 13 s

Time = 0.375
Courant Number mean: 0.184784 max: 0.360802
diagonal:  Solving for T, Initial residual = 0, Final residual = 0, No Iterations 0
diagonal:  Solving for T, Initial residual = 0, Final residual = 0, No Iterations 0
diagonal:  Solving for T, Initial residual = 0, Final residual = 0, No Iterations 0
diagonal:  Solving for T, Initial residual = 0, Final residual = 0, No Iterations 0
 T goes from min(T) [0 0 0 0 0 0 0] -3.73382e-16 to max(T) [0 0 0 0 0 0 0] 0.9514

ExecutionTime = 13.58 s  ClockTime = 14 s

Time = 0.38
Courant Number mean: 0.184714 max: 0.36066
diagonal:  Solving for T, Initial residual = 0, Final residual = 0, No Iterations 0
diagonal:  Solving for T, Initial residual = 0, Final residual = 0, No Iterations 0
diagonal:  Solving for T, Initial residual = 0, Final residual = 0, No Iterations 0
diagonal:  Solving for T, Initial residual = 0, Final residual = 0, No Iterations 0
 T goes from min(T) [0 0 0 0 0 0 0] -6.50223e-16 to max(T) [0 0 0 0 0 0 0] 0.952541

ExecutionTime = 13.74 s  ClockTime = 14 s

Time = 0.385
Courant Number mean: 0.184635 max: 0.36049
diagonal:  Solving for T, Initial residual = 0, Final residual = 0, No Iterations 0
diagonal:  Solving for T, Initial residual = 0, Final residual = 0, No Iterations 0
diagonal:  Solving for T, Initial residual = 0, Final residual = 0, No Iterations 0
diagonal:  Solving for T, Initial residual = 0, Final residual = 0, No Iterations 0
 T goes from min(T) [0 0 0 0 0 0 0] -2.63155e-15 to max(T) [0 0 0 0 0 0 0] 0.95254

ExecutionTime = 13.89 s  ClockTime = 14 s

Time = 0.39
Courant Number mean: 0.184544 max: 0.360293
diagonal:  Solving for T, Initial residual = 0, Final residual = 0, No Iterations 0
diagonal:  Solving for T, Initial residual = 0, Final residual = 0, No Iterations 0
diagonal:  Solving for T, Initial residual = 0, Final residual = 0, No Iterations 0
diagonal:  Solving for T, Initial residual = 0, Final residual = 0, No Iterations 0
 T goes from min(T) [0 0 0 0 0 0 0] -5.35856e-15 to max(T) [0 0 0 0 0 0 0] 0.952588

ExecutionTime = 14.05 s  ClockTime = 14 s

Time = 0.395
Courant Number mean: 0.184443 max: 0.360069
diagonal:  Solving for T, Initial residual = 0, Final residual = 0, No Iterations 0
diagonal:  Solving for T, Initial residual = 0, Final residual = 0, No Iterations 0
diagonal:  Solving for T, Initial residual = 0, Final residual = 0, No Iterations 0
diagonal:  Solving for T, Initial residual = 0, Final residual = 0, No Iterations 0
 T goes from min(T) [0 0 0 0 0 0 0] -7.20875e-15 to max(T) [0 0 0 0 0 0 0] 0.952206

ExecutionTime = 14.2 s  ClockTime = 14 s

Time = 0.4
Courant Number mean: 0.184397 max: 0.359902
diagonal:  Solving for T, Initial residual = 0, Final residual = 0, No Iterations 0
diagonal:  Solving for T, Initial residual = 0, Final residual = 0, No Iterations 0
diagonal:  Solving for T, Initial residual = 0, Final residual = 0, No Iterations 0
diagonal:  Solving for T, Initial residual = 0, Final residual = 0, No Iterations 0
 T goes from min(T) [0 0 0 0 0 0 0] -9.20585e-15 to max(T) [0 0 0 0 0 0 0] 0.952107

ExecutionTime = 14.36 s  ClockTime = 14 s

Time = 0.405
Courant Number mean: 0.184355 max: 0.359725
diagonal:  Solving for T, Initial residual = 0, Final residual = 0, No Iterations 0
diagonal:  Solving for T, Initial residual = 0, Final residual = 0, No Iterations 0
diagonal:  Solving for T, Initial residual = 0, Final residual = 0, No Iterations 0
diagonal:  Solving for T, Initial residual = 0, Final residual = 0, No Iterations 0
 T goes from min(T) [0 0 0 0 0 0 0] -1.17113e-14 to max(T) [0 0 0 0 0 0 0] 0.950604

ExecutionTime = 14.52 s  ClockTime = 15 s

Time = 0.41
Courant Number mean: 0.1843 max: 0.359521
diagonal:  Solving for T, Initial residual = 0, Final residual = 0, No Iterations 0
diagonal:  Solving for T, Initial residual = 0, Final residual = 0, No Iterations 0
diagonal:  Solving for T, Initial residual = 0, Final residual = 0, No Iterations 0
diagonal:  Solving for T, Initial residual = 0, Final residual = 0, No Iterations 0
 T goes from min(T) [0 0 0 0 0 0 0] -1.42595e-14 to max(T) [0 0 0 0 0 0 0] 0.948731

ExecutionTime = 14.68 s  ClockTime = 15 s

Time = 0.415
Courant Number mean: 0.184236 max: 0.35929
diagonal:  Solving for T, Initial residual = 0, Final residual = 0, No Iterations 0
diagonal:  Solving for T, Initial residual = 0, Final residual = 0, No Iterations 0
diagonal:  Solving for T, Initial residual = 0, Final residual = 0, No Iterations 0
diagonal:  Solving for T, Initial residual = 0, Final residual = 0, No Iterations 0
 T goes from min(T) [0 0 0 0 0 0 0] -7.92649e-14 to max(T) [0 0 0 0 0 0 0] 0.950028

ExecutionTime = 14.84 s  ClockTime = 15 s

Time = 0.42
Courant Number mean: 0.184162 max: 0.359101
diagonal:  Solving for T, Initial residual = 0, Final residual = 0, No Iterations 0
diagonal:  Solving for T, Initial residual = 0, Final residual = 0, No Iterations 0
diagonal:  Solving for T, Initial residual = 0, Final residual = 0, No Iterations 0
diagonal:  Solving for T, Initial residual = 0, Final residual = 0, No Iterations 0
 T goes from min(T) [0 0 0 0 0 0 0] -1.50907e-13 to max(T) [0 0 0 0 0 0 0] 0.950129

ExecutionTime = 15 s  ClockTime = 15 s

Time = 0.425
Courant Number mean: 0.18408 max: 0.358921
diagonal:  Solving for T, Initial residual = 0, Final residual = 0, No Iterations 0
diagonal:  Solving for T, Initial residual = 0, Final residual = 0, No Iterations 0
diagonal:  Solving for T, Initial residual = 0, Final residual = 0, No Iterations 0
diagonal:  Solving for T, Initial residual = 0, Final residual = 0, No Iterations 0
 T goes from min(T) [0 0 0 0 0 0 0] -2.24042e-13 to max(T) [0 0 0 0 0 0 0] 0.950929

ExecutionTime = 15.16 s  ClockTime = 15 s

Time = 0.43
Courant Number mean: 0.183986 max: 0.358713
diagonal:  Solving for T, Initial residual = 0, Final residual = 0, No Iterations 0
diagonal:  Solving for T, Initial residual = 0, Final residual = 0, No Iterations 0
diagonal:  Solving for T, Initial residual = 0, Final residual = 0, No Iterations 0
diagonal:  Solving for T, Initial residual = 0, Final residual = 0, No Iterations 0
 T goes from min(T) [0 0 0 0 0 0 0] -3.17629e-13 to max(T) [0 0 0 0 0 0 0] 0.952415

ExecutionTime = 15.31 s  ClockTime = 15 s

Time = 0.435
Courant Number mean: 0.183882 max: 0.358478
diagonal:  Solving for T, Initial residual = 0, Final residual = 0, No Iterations 0
diagonal:  Solving for T, Initial residual = 0, Final residual = 0, No Iterations 0
diagonal:  Solving for T, Initial residual = 0, Final residual = 0, No Iterations 0
diagonal:  Solving for T, Initial residual = 0, Final residual = 0, No Iterations 0
 T goes from min(T) [0 0 0 0 0 0 0] -2.71838e-11 to max(T) [0 0 0 0 0 0 0] 0.952551

ExecutionTime = 15.47 s  ClockTime = 15 s

Time = 0.44
Courant Number mean: 0.183807 max: 0.358267
diagonal:  Solving for T, Initial residual = 0, Final residual = 0, No Iterations 0
diagonal:  Solving for T, Initial residual = 0, Final residual = 0, No Iterations 0
diagonal:  Solving for T, Initial residual = 0, Final residual = 0, No Iterations 0
diagonal:  Solving for T, Initial residual = 0, Final residual = 0, No Iterations 0
 T goes from min(T) [0 0 0 0 0 0 0] -5.782e-11 to max(T) [0 0 0 0 0 0 0] 0.95125

ExecutionTime = 15.63 s  ClockTime = 16 s

Time = 0.445
Courant Number mean: 0.18376 max: 0.358079
diagonal:  Solving for T, Initial residual = 0, Final residual = 0, No Iterations 0
diagonal:  Solving for T, Initial residual = 0, Final residual = 0, No Iterations 0
diagonal:  Solving for T, Initial residual = 0, Final residual = 0, No Iterations 0
diagonal:  Solving for T, Initial residual = 0, Final residual = 0, No Iterations 0
 T goes from min(T) [0 0 0 0 0 0 0] -3.18584e-10 to max(T) [0 0 0 0 0 0 0] 0.950141

ExecutionTime = 15.8 s  ClockTime = 16 s

Time = 0.45
Courant Number mean: 0.183702 max: 0.357864
diagonal:  Solving for T, Initial residual = 0, Final residual = 0, No Iterations 0
diagonal:  Solving for T, Initial residual = 0, Final residual = 0, No Iterations 0
diagonal:  Solving for T, Initial residual = 0, Final residual = 0, No Iterations 0
diagonal:  Solving for T, Initial residual = 0, Final residual = 0, No Iterations 0
 T goes from min(T) [0 0 0 0 0 0 0] -5.52528e-10 to max(T) [0 0 0 0 0 0 0] 0.949483

ExecutionTime = 15.96 s  ClockTime = 16 s

Time = 0.455
Courant Number mean: 0.183635 max: 0.357623
diagonal:  Solving for T, Initial residual = 0, Final residual = 0, No Iterations 0
diagonal:  Solving for T, Initial residual = 0, Final residual = 0, No Iterations 0
diagonal:  Solving for T, Initial residual = 0, Final residual = 0, No Iterations 0
diagonal:  Solving for T, Initial residual = 0, Final residual = 0, No Iterations 0
 T goes from min(T) [0 0 0 0 0 0 0] -7.21402e-10 to max(T) [0 0 0 0 0 0 0] 0.948572

ExecutionTime = 16.11 s  ClockTime = 16 s

Time = 0.46
Courant Number mean: 0.183557 max: 0.357389
diagonal:  Solving for T, Initial residual = 0, Final residual = 0, No Iterations 0
diagonal:  Solving for T, Initial residual = 0, Final residual = 0, No Iterations 0
diagonal:  Solving for T, Initial residual = 0, Final residual = 0, No Iterations 0
diagonal:  Solving for T, Initial residual = 0, Final residual = 0, No Iterations 0
 T goes from min(T) [0 0 0 0 0 0 0] -1.2928e-09 to max(T) [0 0 0 0 0 0 0] 0.947057

ExecutionTime = 16.27 s  ClockTime = 16 s

Time = 0.465
Courant Number mean: 0.183471 max: 0.357198
diagonal:  Solving for T, Initial residual = 0, Final residual = 0, No Iterations 0
diagonal:  Solving for T, Initial residual = 0, Final residual = 0, No Iterations 0
diagonal:  Solving for T, Initial residual = 0, Final residual = 0, No Iterations 0
diagonal:  Solving for T, Initial residual = 0, Final residual = 0, No Iterations 0
 T goes from min(T) [0 0 0 0 0 0 0] -2.19413e-09 to max(T) [0 0 0 0 0 0 0] 0.949824

ExecutionTime = 16.43 s  ClockTime = 16 s

Time = 0.47
Courant Number mean: 0.183374 max: 0.356979
diagonal:  Solving for T, Initial residual = 0, Final residual = 0, No Iterations 0
diagonal:  Solving for T, Initial residual = 0, Final residual = 0, No Iterations 0
diagonal:  Solving for T, Initial residual = 0, Final residual = 0, No Iterations 0
diagonal:  Solving for T, Initial residual = 0, Final residual = 0, No Iterations 0
 T goes from min(T) [0 0 0 0 0 0 0] -2.88378e-09 to max(T) [0 0 0 0 0 0 0] 0.951262

ExecutionTime = 16.59 s  ClockTime = 17 s

Time = 0.475
Courant Number mean: 0.183268 max: 0.356734
diagonal:  Solving for T, Initial residual = 0, Final residual = 0, No Iterations 0
diagonal:  Solving for T, Initial residual = 0, Final residual = 0, No Iterations 0
diagonal:  Solving for T, Initial residual = 0, Final residual = 0, No Iterations 0
diagonal:  Solving for T, Initial residual = 0, Final residual = 0, No Iterations 0
 T goes from min(T) [0 0 0 0 0 0 0] -3.60553e-09 to max(T) [0 0 0 0 0 0 0] 0.951357

ExecutionTime = 16.75 s  ClockTime = 17 s

Time = 0.48
Courant Number mean: 0.183164 max: 0.356479
diagonal:  Solving for T, Initial residual = 0, Final residual = 0, No Iterations 0
diagonal:  Solving for T, Initial residual = 0, Final residual = 0, No Iterations 0
diagonal:  Solving for T, Initial residual = 0, Final residual = 0, No Iterations 0
diagonal:  Solving for T, Initial residual = 0, Final residual = 0, No Iterations 0
 T goes from min(T) [0 0 0 0 0 0 0] -5.18426e-09 to max(T) [0 0 0 0 0 0 0] 0.950105

ExecutionTime = 16.91 s  ClockTime = 17 s

Time = 0.485
Courant Number mean: 0.183113 max: 0.35628
diagonal:  Solving for T, Initial residual = 0, Final residual = 0, No Iterations 0
diagonal:  Solving for T, Initial residual = 0, Final residual = 0, No Iterations 0
diagonal:  Solving for T, Initial residual = 0, Final residual = 0, No Iterations 0
diagonal:  Solving for T, Initial residual = 0, Final residual = 0, No Iterations 0
 T goes from min(T) [0 0 0 0 0 0 0] -7.60406e-09 to max(T) [0 0 0 0 0 0 0] 0.950437

ExecutionTime = 17.07 s  ClockTime = 17 s

Time = 0.49
Courant Number mean: 0.183052 max: 0.356055
diagonal:  Solving for T, Initial residual = 0, Final residual = 0, No Iterations 0
diagonal:  Solving for T, Initial residual = 0, Final residual = 0, No Iterations 0
diagonal:  Solving for T, Initial residual = 0, Final residual = 0, No Iterations 0
diagonal:  Solving for T, Initial residual = 0, Final residual = 0, No Iterations 0
 T goes from min(T) [0 0 0 0 0 0 0] -9.93589e-09 to max(T) [0 0 0 0 0 0 0] 0.950661

ExecutionTime = 17.23 s  ClockTime = 17 s

Time = 0.495
Courant Number mean: 0.182981 max: 0.355803
diagonal:  Solving for T, Initial residual = 0, Final residual = 0, No Iterations 0
diagonal:  Solving for T, Initial residual = 0, Final residual = 0, No Iterations 0
diagonal:  Solving for T, Initial residual = 0, Final residual = 0, No Iterations 0
diagonal:  Solving for T, Initial residual = 0, Final residual = 0, No Iterations 0
 T goes from min(T) [0 0 0 0 0 0 0] -1.21557e-08 to max(T) [0 0 0 0 0 0 0] 0.949478

ExecutionTime = 17.39 s  ClockTime = 17 s

Time = 0.5
Courant Number mean: 0.182901 max: 0.355524
diagonal:  Solving for T, Initial residual = 0, Final residual = 0, No Iterations 0
diagonal:  Solving for T, Initial residual = 0, Final residual = 0, No Iterations 0
diagonal:  Solving for T, Initial residual = 0, Final residual = 0, No Iterations 0
diagonal:  Solving for T, Initial residual = 0, Final residual = 0, No Iterations 0
 T goes from min(T) [0 0 0 0 0 0 0] -1.39941e-08 to max(T) [0 0 0 0 0 0 0] 0.94689

ExecutionTime = 17.55 s  ClockTime = 18 s

Time = 0.505
Courant Number mean: 0.18281 max: 0.355322
diagonal:  Solving for T, Initial residual = 0, Final residual = 0, No Iterations 0
diagonal:  Solving for T, Initial residual = 0, Final residual = 0, No Iterations 0
diagonal:  Solving for T, Initial residual = 0, Final residual = 0, No Iterations 0
diagonal:  Solving for T, Initial residual = 0, Final residual = 0, No Iterations 0
 T goes from min(T) [0 0 0 0 0 0 0] -1.89914e-08 to max(T) [0 0 0 0 0 0 0] 0.945439

ExecutionTime = 17.71 s  ClockTime = 18 s

Time = 0.51
Courant Number mean: 0.182711 max: 0.355093
diagonal:  Solving for T, Initial residual = 0, Final residual = 0, No Iterations 0
diagonal:  Solving for T, Initial residual = 0, Final residual = 0, No Iterations 0
diagonal:  Solving for T, Initial residual = 0, Final residual = 0, No Iterations 0
diagonal:  Solving for T, Initial residual = 0, Final residual = 0, No Iterations 0
 T goes from min(T) [0 0 0 0 0 0 0] -2.62605e-08 to max(T) [0 0 0 0 0 0 0] 0.947356

ExecutionTime = 17.87 s  ClockTime = 18 s

Time = 0.515
Courant Number mean: 0.182601 max: 0.354838
diagonal:  Solving for T, Initial residual = 0, Final residual = 0, No Iterations 0
diagonal:  Solving for T, Initial residual = 0, Final residual = 0, No Iterations 0
diagonal:  Solving for T, Initial residual = 0, Final residual = 0, No Iterations 0
diagonal:  Solving for T, Initial residual = 0, Final residual = 0, No Iterations 0
 T goes from min(T) [0 0 0 0 0 0 0] -3.12414e-08 to max(T) [0 0 0 0 0 0 0] 0.9488

ExecutionTime = 18.03 s  ClockTime = 18 s

Time = 0.52
Courant Number mean: 0.182481 max: 0.354555
diagonal:  Solving for T, Initial residual = 0, Final residual = 0, No Iterations 0
diagonal:  Solving for T, Initial residual = 0, Final residual = 0, No Iterations 0
diagonal:  Solving for T, Initial residual = 0, Final residual = 0, No Iterations 0
diagonal:  Solving for T, Initial residual = 0, Final residual = 0, No Iterations 0
 T goes from min(T) [0 0 0 0 0 0 0] -3.86206e-08 to max(T) [0 0 0 0 0 0 0] 0.949017

ExecutionTime = 18.19 s  ClockTime = 18 s

Time = 0.525
Courant Number mean: 0.182415 max: 0.35433
diagonal:  Solving for T, Initial residual = 0, Final residual = 0, No Iterations 0
diagonal:  Solving for T, Initial residual = 0, Final residual = 0, No Iterations 0
diagonal:  Solving for T, Initial residual = 0, Final residual = 0, No Iterations 0
diagonal:  Solving for T, Initial residual = 0, Final residual = 0, No Iterations 0
 T goes from min(T) [0 0 0 0 0 0 0] -4.3339e-08 to max(T) [0 0 0 0 0 0 0] 0.948717

ExecutionTime = 18.35 s  ClockTime = 18 s

Time = 0.53
Courant Number mean: 0.18235 max: 0.354094
diagonal:  Solving for T, Initial residual = 0, Final residual = 0, No Iterations 0
diagonal:  Solving for T, Initial residual = 0, Final residual = 0, No Iterations 0
diagonal:  Solving for T, Initial residual = 0, Final residual = 0, No Iterations 0
diagonal:  Solving for T, Initial residual = 0, Final residual = 0, No Iterations 0
 T goes from min(T) [0 0 0 0 0 0 0] -5.52344e-08 to max(T) [0 0 0 0 0 0 0] 0.950023

ExecutionTime = 18.5 s  ClockTime = 19 s

Time = 0.535
Courant Number mean: 0.182277 max: 0.353831
diagonal:  Solving for T, Initial residual = 0, Final residual = 0, No Iterations 0
diagonal:  Solving for T, Initial residual = 0, Final residual = 0, No Iterations 0
diagonal:  Solving for T, Initial residual = 0, Final residual = 0, No Iterations 0
diagonal:  Solving for T, Initial residual = 0, Final residual = 0, No Iterations 0
 T goes from min(T) [0 0 0 0 0 0 0] -7.0048e-08 to max(T) [0 0 0 0 0 0 0] 0.950039

ExecutionTime = 18.66 s  ClockTime = 19 s

Time = 0.54
Courant Number mean: 0.182193 max: 0.353542
diagonal:  Solving for T, Initial residual = 0, Final residual = 0, No Iterations 0
diagonal:  Solving for T, Initial residual = 0, Final residual = 0, No Iterations 0
diagonal:  Solving for T, Initial residual = 0, Final residual = 0, No Iterations 0
diagonal:  Solving for T, Initial residual = 0, Final residual = 0, No Iterations 0
 T goes from min(T) [0 0 0 0 0 0 0] -8.5378e-08 to max(T) [0 0 0 0 0 0 0] 0.948764

ExecutionTime = 18.82 s  ClockTime = 19 s

Time = 0.545
Courant Number mean: 0.1821 max: 0.353295
diagonal:  Solving for T, Initial residual = 0, Final residual = 0, No Iterations 0
diagonal:  Solving for T, Initial residual = 0, Final residual = 0, No Iterations 0
diagonal:  Solving for T, Initial residual = 0, Final residual = 0, No Iterations 0
diagonal:  Solving for T, Initial residual = 0, Final residual = 0, No Iterations 0
 T goes from min(T) [0 0 0 0 0 0 0] -1.03015e-07 to max(T) [0 0 0 0 0 0 0] 0.946801

ExecutionTime = 18.98 s  ClockTime = 19 s

Time = 0.55
Courant Number mean: 0.181996 max: 0.353056
diagonal:  Solving for T, Initial residual = 0, Final residual = 0, No Iterations 0
diagonal:  Solving for T, Initial residual = 0, Final residual = 0, No Iterations 0
diagonal:  Solving for T, Initial residual = 0, Final residual = 0, No Iterations 0
diagonal:  Solving for T, Initial residual = 0, Final residual = 0, No Iterations 0
 T goes from min(T) [0 0 0 0 0 0 0] -1.14706e-07 to max(T) [0 0 0 0 0 0 0] 0.946995

ExecutionTime = 19.14 s  ClockTime = 19 s

Time = 0.555
Courant Number mean: 0.181883 max: 0.35279
diagonal:  Solving for T, Initial residual = 0, Final residual = 0, No Iterations 0
diagonal:  Solving for T, Initial residual = 0, Final residual = 0, No Iterations 0
diagonal:  Solving for T, Initial residual = 0, Final residual = 0, No Iterations 0
diagonal:  Solving for T, Initial residual = 0, Final residual = 0, No Iterations 0
 T goes from min(T) [0 0 0 0 0 0 0] -1.32483e-07 to max(T) [0 0 0 0 0 0 0] 0.945838

ExecutionTime = 19.3 s  ClockTime = 19 s

Time = 0.56
Courant Number mean: 0.18176 max: 0.352498
diagonal:  Solving for T, Initial residual = 0, Final residual = 0, No Iterations 0
diagonal:  Solving for T, Initial residual = 0, Final residual = 0, No Iterations 0
diagonal:  Solving for T, Initial residual = 0, Final residual = 0, No Iterations 0
diagonal:  Solving for T, Initial residual = 0, Final residual = 0, No Iterations 0
 T goes from min(T) [0 0 0 0 0 0 0] -1.5634e-07 to max(T) [0 0 0 0 0 0 0] 0.943336

ExecutionTime = 19.46 s  ClockTime = 19 s

Time = 0.565
Courant Number mean: 0.181666 max: 0.352228
diagonal:  Solving for T, Initial residual = 0, Final residual = 0, No Iterations 0
diagonal:  Solving for T, Initial residual = 0, Final residual = 0, No Iterations 0
diagonal:  Solving for T, Initial residual = 0, Final residual = 0, No Iterations 0
diagonal:  Solving for T, Initial residual = 0, Final residual = 0, No Iterations 0
 T goes from min(T) [0 0 0 0 0 0 0] -1.99795e-07 to max(T) [0 0 0 0 0 0 0] 0.944777

ExecutionTime = 19.62 s  ClockTime = 20 s

Time = 0.57
Courant Number mean: 0.181598 max: 0.351982
diagonal:  Solving for T, Initial residual = 0, Final residual = 0, No Iterations 0
diagonal:  Solving for T, Initial residual = 0, Final residual = 0, No Iterations 0
diagonal:  Solving for T, Initial residual = 0, Final residual = 0, No Iterations 0
diagonal:  Solving for T, Initial residual = 0, Final residual = 0, No Iterations 0
 T goes from min(T) [0 0 0 0 0 0 0] -2.38877e-07 to max(T) [0 0 0 0 0 0 0] 0.945624

ExecutionTime = 19.78 s  ClockTime = 20 s

Time = 0.575
Courant Number mean: 0.181522 max: 0.351709
diagonal:  Solving for T, Initial residual = 0, Final residual = 0, No Iterations 0
diagonal:  Solving for T, Initial residual = 0, Final residual = 0, No Iterations 0
diagonal:  Solving for T, Initial residual = 0, Final residual = 0, No Iterations 0
diagonal:  Solving for T, Initial residual = 0, Final residual = 0, No Iterations 0
 T goes from min(T) [0 0 0 0 0 0 0] -2.66457e-07 to max(T) [0 0 0 0 0 0 0] 0.946177

ExecutionTime = 19.94 s  ClockTime = 20 s

Time = 0.58
Courant Number mean: 0.181435 max: 0.35141
diagonal:  Solving for T, Initial residual = 0, Final residual = 0, No Iterations 0
diagonal:  Solving for T, Initial residual = 0, Final residual = 0, No Iterations 0
diagonal:  Solving for T, Initial residual = 0, Final residual = 0, No Iterations 0
diagonal:  Solving for T, Initial residual = 0, Final residual = 0, No Iterations 0
 T goes from min(T) [0 0 0 0 0 0 0] -3.16735e-07 to max(T) [0 0 0 0 0 0 0] 0.947659

ExecutionTime = 20.1 s  ClockTime = 20 s

Time = 0.585
Courant Number mean: 0.181339 max: 0.351119
diagonal:  Solving for T, Initial residual = 0, Final residual = 0, No Iterations 0
diagonal:  Solving for T, Initial residual = 0, Final residual = 0, No Iterations 0
diagonal:  Solving for T, Initial residual = 0, Final residual = 0, No Iterations 0
diagonal:  Solving for T, Initial residual = 0, Final residual = 0, No Iterations 0
 T goes from min(T) [0 0 0 0 0 0 0] -3.50969e-07 to max(T) [0 0 0 0 0 0 0] 0.947993

ExecutionTime = 20.26 s  ClockTime = 20 s

Time = 0.59
Courant Number mean: 0.181232 max: 0.350869
diagonal:  Solving for T, Initial residual = 0, Final residual = 0, No Iterations 0
diagonal:  Solving for T, Initial residual = 0, Final residual = 0, No Iterations 0
diagonal:  Solving for T, Initial residual = 0, Final residual = 0, No Iterations 0
diagonal:  Solving for T, Initial residual = 0, Final residual = 0, No Iterations 0
 T goes from min(T) [0 0 0 0 0 0 0] -4.06919e-07 to max(T) [0 0 0 0 0 0 0] 0.947182

ExecutionTime = 20.41 s  ClockTime = 20 s

Time = 0.595
Courant Number mean: 0.181117 max: 0.350593
diagonal:  Solving for T, Initial residual = 0, Final residual = 0, No Iterations 0
diagonal:  Solving for T, Initial residual = 0, Final residual = 0, No Iterations 0
diagonal:  Solving for T, Initial residual = 0, Final residual = 0, No Iterations 0
diagonal:  Solving for T, Initial residual = 0, Final residual = 0, No Iterations 0
 T goes from min(T) [0 0 0 0 0 0 0] -4.86698e-07 to max(T) [0 0 0 0 0 0 0] 0.946349

ExecutionTime = 20.58 s  ClockTime = 21 s

Time = 0.6
Courant Number mean: 0.18099 max: 0.35029
diagonal:  Solving for T, Initial residual = 0, Final residual = 0, No Iterations 0
diagonal:  Solving for T, Initial residual = 0, Final residual = 0, No Iterations 0
diagonal:  Solving for T, Initial residual = 0, Final residual = 0, No Iterations 0
diagonal:  Solving for T, Initial residual = 0, Final residual = 0, No Iterations 0
 T goes from min(T) [0 0 0 0 0 0 0] -5.56109e-07 to max(T) [0 0 0 0 0 0 0] 0.946502

ExecutionTime = 20.74 s  ClockTime = 21 s

Time = 0.605
Courant Number mean: 0.180867 max: 0.349978
diagonal:  Solving for T, Initial residual = 0, Final residual = 0, No Iterations 0
diagonal:  Solving for T, Initial residual = 0, Final residual = 0, No Iterations 0
diagonal:  Solving for T, Initial residual = 0, Final residual = 0, No Iterations 0
diagonal:  Solving for T, Initial residual = 0, Final residual = 0, No Iterations 0
 T goes from min(T) [0 0 0 0 0 0 0] -6.73292e-07 to max(T) [0 0 0 0 0 0 0] 0.945449

ExecutionTime = 20.9 s  ClockTime = 21 s

Time = 0.61
Courant Number mean: 0.180797 max: 0.349721
diagonal:  Solving for T, Initial residual = 0, Final residual = 0, No Iterations 0
diagonal:  Solving for T, Initial residual = 0, Final residual = 0, No Iterations 0
diagonal:  Solving for T, Initial residual = 0, Final residual = 0, No Iterations 0
diagonal:  Solving for T, Initial residual = 0, Final residual = 0, No Iterations 0
 T goes from min(T) [0 0 0 0 0 0 0] -7.58399e-07 to max(T) [0 0 0 0 0 0 0] 0.943197

ExecutionTime = 21.06 s  ClockTime = 21 s

Time = 0.615
Courant Number mean: 0.180719 max: 0.349438
diagonal:  Solving for T, Initial residual = 0, Final residual = 0, No Iterations 0
diagonal:  Solving for T, Initial residual = 0, Final residual = 0, No Iterations 0
diagonal:  Solving for T, Initial residual = 0, Final residual = 0, No Iterations 0
diagonal:  Solving for T, Initial residual = 0, Final residual = 0, No Iterations 0
 T goes from min(T) [0 0 0 0 0 0 0] -8.23867e-07 to max(T) [0 0 0 0 0 0 0] 0.941748

ExecutionTime = 21.22 s  ClockTime = 21 s

Time = 0.62
Courant Number mean: 0.180629 max: 0.349129
diagonal:  Solving for T, Initial residual = 0, Final residual = 0, No Iterations 0
diagonal:  Solving for T, Initial residual = 0, Final residual = 0, No Iterations 0
diagonal:  Solving for T, Initial residual = 0, Final residual = 0, No Iterations 0
diagonal:  Solving for T, Initial residual = 0, Final residual = 0, No Iterations 0
 T goes from min(T) [0 0 0 0 0 0 0] -9.38679e-07 to max(T) [0 0 0 0 0 0 0] 0.940819

ExecutionTime = 21.38 s  ClockTime = 21 s

Time = 0.625
Courant Number mean: 0.18053 max: 0.348794
diagonal:  Solving for T, Initial residual = 0, Final residual = 0, No Iterations 0
diagonal:  Solving for T, Initial residual = 0, Final residual = 0, No Iterations 0
diagonal:  Solving for T, Initial residual = 0, Final residual = 0, No Iterations 0
diagonal:  Solving for T, Initial residual = 0, Final residual = 0, No Iterations 0
 T goes from min(T) [0 0 0 0 0 0 0] -1.0278e-06 to max(T) [0 0 0 0 0 0 0] 0.939421

ExecutionTime = 21.54 s  ClockTime = 22 s

Time = 0.63
Courant Number mean: 0.180421 max: 0.348533
diagonal:  Solving for T, Initial residual = 0, Final residual = 0, No Iterations 0
diagonal:  Solving for T, Initial residual = 0, Final residual = 0, No Iterations 0
diagonal:  Solving for T, Initial residual = 0, Final residual = 0, No Iterations 0
diagonal:  Solving for T, Initial residual = 0, Final residual = 0, No Iterations 0
 T goes from min(T) [0 0 0 0 0 0 0] -1.27271e-06 to max(T) [0 0 0 0 0 0 0] 0.940758

ExecutionTime = 21.7 s  ClockTime = 22 s

Time = 0.635
Courant Number mean: 0.180302 max: 0.348247
diagonal:  Solving for T, Initial residual = 0, Final residual = 0, No Iterations 0
diagonal:  Solving for T, Initial residual = 0, Final residual = 0, No Iterations 0
diagonal:  Solving for T, Initial residual = 0, Final residual = 0, No Iterations 0
diagonal:  Solving for T, Initial residual = 0, Final residual = 0, No Iterations 0
 T goes from min(T) [0 0 0 0 0 0 0] -1.46017e-06 to max(T) [0 0 0 0 0 0 0] 0.942159

ExecutionTime = 21.87 s  ClockTime = 22 s

Time = 0.64
Courant Number mean: 0.180172 max: 0.347934
diagonal:  Solving for T, Initial residual = 0, Final residual = 0, No Iterations 0
diagonal:  Solving for T, Initial residual = 0, Final residual = 0, No Iterations 0
diagonal:  Solving for T, Initial residual = 0, Final residual = 0, No Iterations 0
diagonal:  Solving for T, Initial residual = 0, Final residual = 0, No Iterations 0
 T goes from min(T) [0 0 0 0 0 0 0] -1.59437e-06 to max(T) [0 0 0 0 0 0 0] 0.943649

ExecutionTime = 22.03 s  ClockTime = 22 s

Time = 0.645
Courant Number mean: 0.180034 max: 0.347596
diagonal:  Solving for T, Initial residual = 0, Final residual = 0, No Iterations 0
diagonal:  Solving for T, Initial residual = 0, Final residual = 0, No Iterations 0
diagonal:  Solving for T, Initial residual = 0, Final residual = 0, No Iterations 0
diagonal:  Solving for T, Initial residual = 0, Final residual = 0, No Iterations 0
 T goes from min(T) [0 0 0 0 0 0 0] -1.87745e-06 to max(T) [0 0 0 0 0 0 0] 0.944168

ExecutionTime = 22.19 s  ClockTime = 22 s

Time = 0.65
Courant Number mean: 0.179949 max: 0.347313
diagonal:  Solving for T, Initial residual = 0, Final residual = 0, No Iterations 0
diagonal:  Solving for T, Initial residual = 0, Final residual = 0, No Iterations 0
diagonal:  Solving for T, Initial residual = 0, Final residual = 0, No Iterations 0
diagonal:  Solving for T, Initial residual = 0, Final residual = 0, No Iterations 0
 T goes from min(T) [0 0 0 0 0 0 0] -2.08483e-06 to max(T) [0 0 0 0 0 0 0] 0.943723

ExecutionTime = 22.36 s  ClockTime = 22 s

Time = 0.655
Courant Number mean: 0.179867 max: 0.347019
diagonal:  Solving for T, Initial residual = 0, Final residual = 0, No Iterations 0
diagonal:  Solving for T, Initial residual = 0, Final residual = 0, No Iterations 0
diagonal:  Solving for T, Initial residual = 0, Final residual = 0, No Iterations 0
diagonal:  Solving for T, Initial residual = 0, Final residual = 0, No Iterations 0
 T goes from min(T) [0 0 0 0 0 0 0] -2.22046e-06 to max(T) [0 0 0 0 0 0 0] 0.943776

ExecutionTime = 22.52 s  ClockTime = 23 s

Time = 0.66
Courant Number mean: 0.179775 max: 0.3467
diagonal:  Solving for T, Initial residual = 0, Final residual = 0, No Iterations 0
diagonal:  Solving for T, Initial residual = 0, Final residual = 0, No Iterations 0
diagonal:  Solving for T, Initial residual = 0, Final residual = 0, No Iterations 0
diagonal:  Solving for T, Initial residual = 0, Final residual = 0, No Iterations 0
 T goes from min(T) [0 0 0 0 0 0 0] -2.49622e-06 to max(T) [0 0 0 0 0 0 0] 0.943745

ExecutionTime = 22.68 s  ClockTime = 23 s

Time = 0.665
Courant Number mean: 0.179674 max: 0.346355
diagonal:  Solving for T, Initial residual = 0, Final residual = 0, No Iterations 0
diagonal:  Solving for T, Initial residual = 0, Final residual = 0, No Iterations 0
diagonal:  Solving for T, Initial residual = 0, Final residual = 0, No Iterations 0
diagonal:  Solving for T, Initial residual = 0, Final residual = 0, No Iterations 0
 T goes from min(T) [0 0 0 0 0 0 0] -2.77472e-06 to max(T) [0 0 0 0 0 0 0] 0.94269

ExecutionTime = 22.83 s  ClockTime = 23 s

Time = 0.67
Courant Number mean: 0.179562 max: 0.346051
diagonal:  Solving for T, Initial residual = 0, Final residual = 0, No Iterations 0
diagonal:  Solving for T, Initial residual = 0, Final residual = 0, No Iterations 0
diagonal:  Solving for T, Initial residual = 0, Final residual = 0, No Iterations 0
diagonal:  Solving for T, Initial residual = 0, Final residual = 0, No Iterations 0
 T goes from min(T) [0 0 0 0 0 0 0] -3.34076e-06 to max(T) [0 0 0 0 0 0 0] 0.940622

ExecutionTime = 23 s  ClockTime = 23 s

Time = 0.675
Courant Number mean: 0.17944 max: 0.345754
diagonal:  Solving for T, Initial residual = 0, Final residual = 0, No Iterations 0
diagonal:  Solving for T, Initial residual = 0, Final residual = 0, No Iterations 0
diagonal:  Solving for T, Initial residual = 0, Final residual = 0, No Iterations 0
diagonal:  Solving for T, Initial residual = 0, Final residual = 0, No Iterations 0
 T goes from min(T) [0 0 0 0 0 0 0] -3.82026e-06 to max(T) [0 0 0 0 0 0 0] 0.940325

ExecutionTime = 23.16 s  ClockTime = 23 s

Time = 0.68
Courant Number mean: 0.17931 max: 0.345432
diagonal:  Solving for T, Initial residual = 0, Final residual = 0, No Iterations 0
diagonal:  Solving for T, Initial residual = 0, Final residual = 0, No Iterations 0
diagonal:  Solving for T, Initial residual = 0, Final residual = 0, No Iterations 0
diagonal:  Solving for T, Initial residual = 0, Final residual = 0, No Iterations 0
 T goes from min(T) [0 0 0 0 0 0 0] -4.16857e-06 to max(T) [0 0 0 0 0 0 0] 0.938968

ExecutionTime = 23.31 s  ClockTime = 23 s

Time = 0.685
Courant Number mean: 0.179171 max: 0.345084
diagonal:  Solving for T, Initial residual = 0, Final residual = 0, No Iterations 0
diagonal:  Solving for T, Initial residual = 0, Final residual = 0, No Iterations 0
diagonal:  Solving for T, Initial residual = 0, Final residual = 0, No Iterations 0
diagonal:  Solving for T, Initial residual = 0, Final residual = 0, No Iterations 0
 T goes from min(T) [0 0 0 0 0 0 0] -4.59447e-06 to max(T) [0 0 0 0 0 0 0] 0.936542

ExecutionTime = 23.47 s  ClockTime = 23 s

Time = 0.69
Courant Number mean: 0.179059 max: 0.344758
diagonal:  Solving for T, Initial residual = 0, Final residual = 0, No Iterations 0
diagonal:  Solving for T, Initial residual = 0, Final residual = 0, No Iterations 0
diagonal:  Solving for T, Initial residual = 0, Final residual = 0, No Iterations 0
diagonal:  Solving for T, Initial residual = 0, Final residual = 0, No Iterations 0
 T goes from min(T) [0 0 0 0 0 0 0] -5.14454e-06 to max(T) [0 0 0 0 0 0 0] 0.93448

ExecutionTime = 23.63 s  ClockTime = 24 s

Time = 0.695
Courant Number mean: 0.178972 max: 0.344454
diagonal:  Solving for T, Initial residual = 0, Final residual = 0, No Iterations 0
diagonal:  Solving for T, Initial residual = 0, Final residual = 0, No Iterations 0
diagonal:  Solving for T, Initial residual = 0, Final residual = 0, No Iterations 0
diagonal:  Solving for T, Initial residual = 0, Final residual = 0, No Iterations 0
 T goes from min(T) [0 0 0 0 0 0 0] -5.51767e-06 to max(T) [0 0 0 0 0 0 0] 0.93316

ExecutionTime = 23.79 s  ClockTime = 24 s

Time = 0.7
Courant Number mean: 0.178877 max: 0.344125
diagonal:  Solving for T, Initial residual = 0, Final residual = 0, No Iterations 0
diagonal:  Solving for T, Initial residual = 0, Final residual = 0, No Iterations 0
diagonal:  Solving for T, Initial residual = 0, Final residual = 0, No Iterations 0
diagonal:  Solving for T, Initial residual = 0, Final residual = 0, No Iterations 0
 T goes from min(T) [0 0 0 0 0 0 0] -6.23094e-06 to max(T) [0 0 0 0 0 0 0] 0.932421

ExecutionTime = 23.95 s  ClockTime = 24 s

Time = 0.705
Courant Number mean: 0.178771 max: 0.343771
diagonal:  Solving for T, Initial residual = 0, Final residual = 0, No Iterations 0
diagonal:  Solving for T, Initial residual = 0, Final residual = 0, No Iterations 0
diagonal:  Solving for T, Initial residual = 0, Final residual = 0, No Iterations 0
diagonal:  Solving for T, Initial residual = 0, Final residual = 0, No Iterations 0
 T goes from min(T) [0 0 0 0 0 0 0] -6.97226e-06 to max(T) [0 0 0 0 0 0 0] 0.934378

ExecutionTime = 24.11 s  ClockTime = 24 s

Time = 0.71
Courant Number mean: 0.178656 max: 0.343424
diagonal:  Solving for T, Initial residual = 0, Final residual = 0, No Iterations 0
diagonal:  Solving for T, Initial residual = 0, Final residual = 0, No Iterations 0
diagonal:  Solving for T, Initial residual = 0, Final residual = 0, No Iterations 0
diagonal:  Solving for T, Initial residual = 0, Final residual = 0, No Iterations 0
 T goes from min(T) [0 0 0 0 0 0 0] -7.60981e-06 to max(T) [0 0 0 0 0 0 0] 0.936415

ExecutionTime = 24.26 s  ClockTime = 24 s

Time = 0.715
Courant Number mean: 0.178534 max: 0.343117
diagonal:  Solving for T, Initial residual = 0, Final residual = 0, No Iterations 0
diagonal:  Solving for T, Initial residual = 0, Final residual = 0, No Iterations 0
diagonal:  Solving for T, Initial residual = 0, Final residual = 0, No Iterations 0
diagonal:  Solving for T, Initial residual = 0, Final residual = 0, No Iterations 0
 T goes from min(T) [0 0 0 0 0 0 0] -8.89516e-06 to max(T) [0 0 0 0 0 0 0] 0.93769

ExecutionTime = 24.42 s  ClockTime = 24 s

Time = 0.72
Courant Number mean: 0.178404 max: 0.342784
diagonal:  Solving for T, Initial residual = 0, Final residual = 0, No Iterations 0
diagonal:  Solving for T, Initial residual = 0, Final residual = 0, No Iterations 0
diagonal:  Solving for T, Initial residual = 0, Final residual = 0, No Iterations 0
diagonal:  Solving for T, Initial residual = 0, Final residual = 0, No Iterations 0
 T goes from min(T) [0 0 0 0 0 0 0] -9.86115e-06 to max(T) [0 0 0 0 0 0 0] 0.93821

ExecutionTime = 24.58 s  ClockTime = 25 s

Time = 0.725
Courant Number mean: 0.178263 max: 0.342426
diagonal:  Solving for T, Initial residual = 0, Final residual = 0, No Iterations 0
diagonal:  Solving for T, Initial residual = 0, Final residual = 0, No Iterations 0
diagonal:  Solving for T, Initial residual = 0, Final residual = 0, No Iterations 0
diagonal:  Solving for T, Initial residual = 0, Final residual = 0, No Iterations 0
 T goes from min(T) [0 0 0 0 0 0 0] -1.05311e-05 to max(T) [0 0 0 0 0 0 0] 0.938163

ExecutionTime = 24.74 s  ClockTime = 25 s

Time = 0.73
Courant Number mean: 0.178124 max: 0.342059
diagonal:  Solving for T, Initial residual = 0, Final residual = 0, No Iterations 0
diagonal:  Solving for T, Initial residual = 0, Final residual = 0, No Iterations 0
diagonal:  Solving for T, Initial residual = 0, Final residual = 0, No Iterations 0
diagonal:  Solving for T, Initial residual = 0, Final residual = 0, No Iterations 0
 T goes from min(T) [0 0 0 0 0 0 0] -1.14523e-05 to max(T) [0 0 0 0 0 0 0] 0.938585

ExecutionTime = 24.9 s  ClockTime = 25 s

Time = 0.735
Courant Number mean: 0.178036 max: 0.341745
diagonal:  Solving for T, Initial residual = 0, Final residual = 0, No Iterations 0
diagonal:  Solving for T, Initial residual = 0, Final residual = 0, No Iterations 0
diagonal:  Solving for T, Initial residual = 0, Final residual = 0, No Iterations 0
diagonal:  Solving for T, Initial residual = 0, Final residual = 0, No Iterations 0
 T goes from min(T) [0 0 0 0 0 0 0] -1.25332e-05 to max(T) [0 0 0 0 0 0 0] 0.938199

ExecutionTime = 25.06 s  ClockTime = 25 s

Time = 0.74
Courant Number mean: 0.177937 max: 0.341406
diagonal:  Solving for T, Initial residual = 0, Final residual = 0, No Iterations 0
diagonal:  Solving for T, Initial residual = 0, Final residual = 0, No Iterations 0
diagonal:  Solving for T, Initial residual = 0, Final residual = 0, No Iterations 0
diagonal:  Solving for T, Initial residual = 0, Final residual = 0, No Iterations 0
 T goes from min(T) [0 0 0 0 0 0 0] -1.36497e-05 to max(T) [0 0 0 0 0 0 0] 0.937015

ExecutionTime = 25.22 s  ClockTime = 25 s

Time = 0.745
Courant Number mean: 0.177828 max: 0.341042
diagonal:  Solving for T, Initial residual = 0, Final residual = 0, No Iterations 0
diagonal:  Solving for T, Initial residual = 0, Final residual = 0, No Iterations 0
diagonal:  Solving for T, Initial residual = 0, Final residual = 0, No Iterations 0
diagonal:  Solving for T, Initial residual = 0, Final residual = 0, No Iterations 0
 T goes from min(T) [0 0 0 0 0 0 0] -1.56825e-05 to max(T) [0 0 0 0 0 0 0] 0.936205

ExecutionTime = 25.38 s  ClockTime = 25 s

Time = 0.75
Courant Number mean: 0.177712 max: 0.340653
diagonal:  Solving for T, Initial residual = 0, Final residual = 0, No Iterations 0
diagonal:  Solving for T, Initial residual = 0, Final residual = 0, No Iterations 0
diagonal:  Solving for T, Initial residual = 0, Final residual = 0, No Iterations 0
diagonal:  Solving for T, Initial residual = 0, Final residual = 0, No Iterations 0
 T goes from min(T) [0 0 0 0 0 0 0] -1.72351e-05 to max(T) [0 0 0 0 0 0 0] 0.935142

ExecutionTime = 25.54 s  ClockTime = 26 s

Time = 0.755
Courant Number mean: 0.177588 max: 0.340336
diagonal:  Solving for T, Initial residual = 0, Final residual = 0, No Iterations 0
diagonal:  Solving for T, Initial residual = 0, Final residual = 0, No Iterations 0
diagonal:  Solving for T, Initial residual = 0, Final residual = 0, No Iterations 0
diagonal:  Solving for T, Initial residual = 0, Final residual = 0, No Iterations 0
 T goes from min(T) [0 0 0 0 0 0 0] -1.83355e-05 to max(T) [0 0 0 0 0 0 0] 0.933231

ExecutionTime = 25.7 s  ClockTime = 26 s

Time = 0.76
[...]
diagonal:  Solving for T, Initial residual = 0, Final residual = 0, No Iterations 0
 T goes from min(T) [0 0 0 0 0 0 0] -0.102669 to max(T) [0 0 0 0 0 0 0] 0.767902

ExecutionTime = 155.68 s  ClockTime = 156 s

Time = 4.815
Courant Number mean: 0.186582 max: 0.366
diagonal:  Solving for T, Initial residual = 0, Final residual = 0, No Iterations 0
diagonal:  Solving for T, Initial residual = 0, Final residual = 0, No Iterations 0
diagonal:  Solving for T, Initial residual = 0, Final residual = 0, No Iterations 0
diagonal:  Solving for T, Initial residual = 0, Final residual = 0, No Iterations 0
 T goes from min(T) [0 0 0 0 0 0 0] -0.102833 to max(T) [0 0 0 0 0 0 0] 0.768298

ExecutionTime = 155.84 s  ClockTime = 156 s

Time = 4.82
Courant Number mean: 0.186646 max: 0.366116
diagonal:  Solving for T, Initial residual = 0, Final residual = 0, No Iterations 0
diagonal:  Solving for T, Initial residual = 0, Final residual = 0, No Iterations 0
diagonal:  Solving for T, Initial residual = 0, Final residual = 0, No Iterations 0
diagonal:  Solving for T, Initial residual = 0, Final residual = 0, No Iterations 0
 T goes from min(T) [0 0 0 0 0 0 0] -0.102904 to max(T) [0 0 0 0 0 0 0] 0.767989

ExecutionTime = 156 s  ClockTime = 156 s

Time = 4.825
Courant Number mean: 0.186698 max: 0.366204
diagonal:  Solving for T, Initial residual = 0, Final residual = 0, No Iterations 0
diagonal:  Solving for T, Initial residual = 0, Final residual = 0, No Iterations 0
diagonal:  Solving for T, Initial residual = 0, Final residual = 0, No Iterations 0
diagonal:  Solving for T, Initial residual = 0, Final residual = 0, No Iterations 0
 T goes from min(T) [0 0 0 0 0 0 0] -0.102881 to max(T) [0 0 0 0 0 0 0] 0.766971

ExecutionTime = 156.16 s  ClockTime = 156 s

Time = 4.83
Courant Number mean: 0.18674 max: 0.366264
diagonal:  Solving for T, Initial residual = 0, Final residual = 0, No Iterations 0
diagonal:  Solving for T, Initial residual = 0, Final residual = 0, No Iterations 0
diagonal:  Solving for T, Initial residual = 0, Final residual = 0, No Iterations 0
diagonal:  Solving for T, Initial residual = 0, Final residual = 0, No Iterations 0
 T goes from min(T) [0 0 0 0 0 0 0] -0.102805 to max(T) [0 0 0 0 0 0 0] 0.765243

ExecutionTime = 156.31 s  ClockTime = 156 s

Time = 4.835
Courant Number mean: 0.186771 max: 0.366332
diagonal:  Solving for T, Initial residual = 0, Final residual = 0, No Iterations 0
diagonal:  Solving for T, Initial residual = 0, Final residual = 0, No Iterations 0
diagonal:  Solving for T, Initial residual = 0, Final residual = 0, No Iterations 0
diagonal:  Solving for T, Initial residual = 0, Final residual = 0, No Iterations 0
 T goes from min(T) [0 0 0 0 0 0 0] -0.10298 to max(T) [0 0 0 0 0 0 0] 0.762808

ExecutionTime = 156.47 s  ClockTime = 157 s

Time = 4.84
Courant Number mean: 0.186792 max: 0.366444
diagonal:  Solving for T, Initial residual = 0, Final residual = 0, No Iterations 0
diagonal:  Solving for T, Initial residual = 0, Final residual = 0, No Iterations 0
diagonal:  Solving for T, Initial residual = 0, Final residual = 0, No Iterations 0
diagonal:  Solving for T, Initial residual = 0, Final residual = 0, No Iterations 0
 T goes from min(T) [0 0 0 0 0 0 0] -0.103058 to max(T) [0 0 0 0 0 0 0] 0.762502

ExecutionTime = 156.64 s  ClockTime = 157 s

Time = 4.845
Courant Number mean: 0.186802 max: 0.366528
diagonal:  Solving for T, Initial residual = 0, Final residual = 0, No Iterations 0
diagonal:  Solving for T, Initial residual = 0, Final residual = 0, No Iterations 0
diagonal:  Solving for T, Initial residual = 0, Final residual = 0, No Iterations 0
diagonal:  Solving for T, Initial residual = 0, Final residual = 0, No Iterations 0
 T goes from min(T) [0 0 0 0 0 0 0] -0.103039 to max(T) [0 0 0 0 0 0 0] 0.764737

ExecutionTime = 156.8 s  ClockTime = 157 s

Time = 4.85
Courant Number mean: 0.186801 max: 0.366584
diagonal:  Solving for T, Initial residual = 0, Final residual = 0, No Iterations 0
diagonal:  Solving for T, Initial residual = 0, Final residual = 0, No Iterations 0
diagonal:  Solving for T, Initial residual = 0, Final residual = 0, No Iterations 0
diagonal:  Solving for T, Initial residual = 0, Final residual = 0, No Iterations 0
 T goes from min(T) [0 0 0 0 0 0 0] -0.102923 to max(T) [0 0 0 0 0 0 0] 0.766332

ExecutionTime = 156.96 s  ClockTime = 157 s

Time = 4.855
Courant Number mean: 0.186803 max: 0.36663
diagonal:  Solving for T, Initial residual = 0, Final residual = 0, No Iterations 0
diagonal:  Solving for T, Initial residual = 0, Final residual = 0, No Iterations 0
diagonal:  Solving for T, Initial residual = 0, Final residual = 0, No Iterations 0
diagonal:  Solving for T, Initial residual = 0, Final residual = 0, No Iterations 0
 T goes from min(T) [0 0 0 0 0 0 0] -0.103041 to max(T) [0 0 0 0 0 0 0] 0.767267

ExecutionTime = 157.12 s  ClockTime = 157 s

Time = 4.86
Courant Number mean: 0.186862 max: 0.366735
diagonal:  Solving for T, Initial residual = 0, Final residual = 0, No Iterations 0
diagonal:  Solving for T, Initial residual = 0, Final residual = 0, No Iterations 0
diagonal:  Solving for T, Initial residual = 0, Final residual = 0, No Iterations 0
diagonal:  Solving for T, Initial residual = 0, Final residual = 0, No Iterations 0
 T goes from min(T) [0 0 0 0 0 0 0] -0.103116 to max(T) [0 0 0 0 0 0 0] 0.767525

ExecutionTime = 157.28 s  ClockTime = 157 s

Time = 4.865
Courant Number mean: 0.186912 max: 0.366812
diagonal:  Solving for T, Initial residual = 0, Final residual = 0, No Iterations 0
diagonal:  Solving for T, Initial residual = 0, Final residual = 0, No Iterations 0
diagonal:  Solving for T, Initial residual = 0, Final residual = 0, No Iterations 0
diagonal:  Solving for T, Initial residual = 0, Final residual = 0, No Iterations 0
 T goes from min(T) [0 0 0 0 0 0 0] -0.103091 to max(T) [0 0 0 0 0 0 0] 0.767097

ExecutionTime = 157.44 s  ClockTime = 158 s

Time = 4.87
Courant Number mean: 0.186949 max: 0.366861
diagonal:  Solving for T, Initial residual = 0, Final residual = 0, No Iterations 0
diagonal:  Solving for T, Initial residual = 0, Final residual = 0, No Iterations 0
diagonal:  Solving for T, Initial residual = 0, Final residual = 0, No Iterations 0
diagonal:  Solving for T, Initial residual = 0, Final residual = 0, No Iterations 0
 T goes from min(T) [0 0 0 0 0 0 0] -0.102966 to max(T) [0 0 0 0 0 0 0] 0.765975

ExecutionTime = 157.6 s  ClockTime = 158 s

Time = 4.875
Courant Number mean: 0.186976 max: 0.366881
diagonal:  Solving for T, Initial residual = 0, Final residual = 0, No Iterations 0
diagonal:  Solving for T, Initial residual = 0, Final residual = 0, No Iterations 0
diagonal:  Solving for T, Initial residual = 0, Final residual = 0, No Iterations 0
diagonal:  Solving for T, Initial residual = 0, Final residual = 0, No Iterations 0
 T goes from min(T) [0 0 0 0 0 0 0] -0.10304 to max(T) [0 0 0 0 0 0 0] 0.764159

ExecutionTime = 157.76 s  ClockTime = 158 s

Time = 4.88
Courant Number mean: 0.186994 max: 0.366983
diagonal:  Solving for T, Initial residual = 0, Final residual = 0, No Iterations 0
diagonal:  Solving for T, Initial residual = 0, Final residual = 0, No Iterations 0
diagonal:  Solving for T, Initial residual = 0, Final residual = 0, No Iterations 0
diagonal:  Solving for T, Initial residual = 0, Final residual = 0, No Iterations 0
 T goes from min(T) [0 0 0 0 0 0 0] -0.103105 to max(T) [0 0 0 0 0 0 0] 0.76292

ExecutionTime = 157.92 s  ClockTime = 158 s

Time = 4.885
Courant Number mean: 0.187 max: 0.367056
diagonal:  Solving for T, Initial residual = 0, Final residual = 0, No Iterations 0
diagonal:  Solving for T, Initial residual = 0, Final residual = 0, No Iterations 0
diagonal:  Solving for T, Initial residual = 0, Final residual = 0, No Iterations 0
diagonal:  Solving for T, Initial residual = 0, Final residual = 0, No Iterations 0
 T goes from min(T) [0 0 0 0 0 0 0] -0.103065 to max(T) [0 0 0 0 0 0 0] 0.761074

ExecutionTime = 158.08 s  ClockTime = 158 s

Time = 4.89
Courant Number mean: 0.186995 max: 0.367101
diagonal:  Solving for T, Initial residual = 0, Final residual = 0, No Iterations 0
diagonal:  Solving for T, Initial residual = 0, Final residual = 0, No Iterations 0
diagonal:  Solving for T, Initial residual = 0, Final residual = 0, No Iterations 0
diagonal:  Solving for T, Initial residual = 0, Final residual = 0, No Iterations 0
 T goes from min(T) [0 0 0 0 0 0 0] -0.102922 to max(T) [0 0 0 0 0 0 0] 0.762871

ExecutionTime = 158.24 s  ClockTime = 158 s

Time = 4.895
Courant Number mean: 0.186979 max: 0.367118
diagonal:  Solving for T, Initial residual = 0, Final residual = 0, No Iterations 0
diagonal:  Solving for T, Initial residual = 0, Final residual = 0, No Iterations 0
diagonal:  Solving for T, Initial residual = 0, Final residual = 0, No Iterations 0
diagonal:  Solving for T, Initial residual = 0, Final residual = 0, No Iterations 0
 T goes from min(T) [0 0 0 0 0 0 0] -0.102998 to max(T) [0 0 0 0 0 0 0] 0.764282

ExecutionTime = 158.4 s  ClockTime = 158 s

Time = 4.9
Courant Number mean: 0.187021 max: 0.367195
diagonal:  Solving for T, Initial residual = 0, Final residual = 0, No Iterations 0
diagonal:  Solving for T, Initial residual = 0, Final residual = 0, No Iterations 0
diagonal:  Solving for T, Initial residual = 0, Final residual = 0, No Iterations 0
diagonal:  Solving for T, Initial residual = 0, Final residual = 0, No Iterations 0
 T goes from min(T) [0 0 0 0 0 0 0] -0.103045 to max(T) [0 0 0 0 0 0 0] 0.765049

ExecutionTime = 158.57 s  ClockTime = 159 s

Time = 4.905
Courant Number mean: 0.187067 max: 0.367261
diagonal:  Solving for T, Initial residual = 0, Final residual = 0, No Iterations 0
diagonal:  Solving for T, Initial residual = 0, Final residual = 0, No Iterations 0
diagonal:  Solving for T, Initial residual = 0, Final residual = 0, No Iterations 0
diagonal:  Solving for T, Initial residual = 0, Final residual = 0, No Iterations 0
 T goes from min(T) [0 0 0 0 0 0 0] -0.102984 to max(T) [0 0 0 0 0 0 0] 0.765301

ExecutionTime = 158.73 s  ClockTime = 159 s

Time = 4.91
Courant Number mean: 0.187102 max: 0.367299
diagonal:  Solving for T, Initial residual = 0, Final residual = 0, No Iterations 0
diagonal:  Solving for T, Initial residual = 0, Final residual = 0, No Iterations 0
diagonal:  Solving for T, Initial residual = 0, Final residual = 0, No Iterations 0
diagonal:  Solving for T, Initial residual = 0, Final residual = 0, No Iterations 0
 T goes from min(T) [0 0 0 0 0 0 0] -0.102817 to max(T) [0 0 0 0 0 0 0] 0.765731

ExecutionTime = 158.89 s  ClockTime = 159 s

Time = 4.915
Courant Number mean: 0.187124 max: 0.367308
diagonal:  Solving for T, Initial residual = 0, Final residual = 0, No Iterations 0
diagonal:  Solving for T, Initial residual = 0, Final residual = 0, No Iterations 0
diagonal:  Solving for T, Initial residual = 0, Final residual = 0, No Iterations 0
diagonal:  Solving for T, Initial residual = 0, Final residual = 0, No Iterations 0
 T goes from min(T) [0 0 0 0 0 0 0] -0.10293 to max(T) [0 0 0 0 0 0 0] 0.7655

ExecutionTime = 159.06 s  ClockTime = 159 s

Time = 4.92
Courant Number mean: 0.187137 max: 0.367363
diagonal:  Solving for T, Initial residual = 0, Final residual = 0, No Iterations 0
diagonal:  Solving for T, Initial residual = 0, Final residual = 0, No Iterations 0
diagonal:  Solving for T, Initial residual = 0, Final residual = 0, No Iterations 0
diagonal:  Solving for T, Initial residual = 0, Final residual = 0, No Iterations 0
 T goes from min(T) [0 0 0 0 0 0 0] -0.102955 to max(T) [0 0 0 0 0 0 0] 0.764605

ExecutionTime = 159.22 s  ClockTime = 159 s

Time = 4.925
Courant Number mean: 0.187141 max: 0.367425
diagonal:  Solving for T, Initial residual = 0, Final residual = 0, No Iterations 0
diagonal:  Solving for T, Initial residual = 0, Final residual = 0, No Iterations 0
diagonal:  Solving for T, Initial residual = 0, Final residual = 0, No Iterations 0
diagonal:  Solving for T, Initial residual = 0, Final residual = 0, No Iterations 0
 T goes from min(T) [0 0 0 0 0 0 0] -0.102869 to max(T) [0 0 0 0 0 0 0] 0.763049

ExecutionTime = 159.38 s  ClockTime = 159 s

Time = 4.93
Courant Number mean: 0.187132 max: 0.367459
diagonal:  Solving for T, Initial residual = 0, Final residual = 0, No Iterations 0
diagonal:  Solving for T, Initial residual = 0, Final residual = 0, No Iterations 0
diagonal:  Solving for T, Initial residual = 0, Final residual = 0, No Iterations 0
diagonal:  Solving for T, Initial residual = 0, Final residual = 0, No Iterations 0
 T goes from min(T) [0 0 0 0 0 0 0] -0.102741 to max(T) [0 0 0 0 0 0 0] 0.760839

ExecutionTime = 159.54 s  ClockTime = 160 s

Time = 4.935
Courant Number mean: 0.187112 max: 0.367465
diagonal:  Solving for T, Initial residual = 0, Final residual = 0, No Iterations 0
diagonal:  Solving for T, Initial residual = 0, Final residual = 0, No Iterations 0
diagonal:  Solving for T, Initial residual = 0, Final residual = 0, No Iterations 0
diagonal:  Solving for T, Initial residual = 0, Final residual = 0, No Iterations 0
 T goes from min(T) [0 0 0 0 0 0 0] -0.102853 to max(T) [0 0 0 0 0 0 0] 0.761811

ExecutionTime = 159.71 s  ClockTime = 160 s

Time = 4.94
Courant Number mean: 0.187123 max: 0.367496
diagonal:  Solving for T, Initial residual = 0, Final residual = 0, No Iterations 0
diagonal:  Solving for T, Initial residual = 0, Final residual = 0, No Iterations 0
diagonal:  Solving for T, Initial residual = 0, Final residual = 0, No Iterations 0
diagonal:  Solving for T, Initial residual = 0, Final residual = 0, No Iterations 0
 T goes from min(T) [0 0 0 0 0 0 0] -0.102852 to max(T) [0 0 0 0 0 0 0] 0.763676

ExecutionTime = 159.87 s  ClockTime = 160 s

Time = 4.945
Courant Number mean: 0.187165 max: 0.367551
diagonal:  Solving for T, Initial residual = 0, Final residual = 0, No Iterations 0
diagonal:  Solving for T, Initial residual = 0, Final residual = 0, No Iterations 0
diagonal:  Solving for T, Initial residual = 0, Final residual = 0, No Iterations 0
diagonal:  Solving for T, Initial residual = 0, Final residual = 0, No Iterations 0
 T goes from min(T) [0 0 0 0 0 0 0] -0.102738 to max(T) [0 0 0 0 0 0 0] 0.764928

ExecutionTime = 160.03 s  ClockTime = 160 s

Time = 4.95
Courant Number mean: 0.187196 max: 0.367578
diagonal:  Solving for T, Initial residual = 0, Final residual = 0, No Iterations 0
diagonal:  Solving for T, Initial residual = 0, Final residual = 0, No Iterations 0
diagonal:  Solving for T, Initial residual = 0, Final residual = 0, No Iterations 0
diagonal:  Solving for T, Initial residual = 0, Final residual = 0, No Iterations 0
 T goes from min(T) [0 0 0 0 0 0 0] -0.10269 to max(T) [0 0 0 0 0 0 0] 0.765551

ExecutionTime = 160.19 s  ClockTime = 160 s

Time = 4.955
Courant Number mean: 0.187215 max: 0.367576
diagonal:  Solving for T, Initial residual = 0, Final residual = 0, No Iterations 0
diagonal:  Solving for T, Initial residual = 0, Final residual = 0, No Iterations 0
diagonal:  Solving for T, Initial residual = 0, Final residual = 0, No Iterations 0
diagonal:  Solving for T, Initial residual = 0, Final residual = 0, No Iterations 0
 T goes from min(T) [0 0 0 0 0 0 0] -0.102779 to max(T) [0 0 0 0 0 0 0] 0.765538

ExecutionTime = 160.35 s  ClockTime = 160 s

Time = 4.96
Courant Number mean: 0.187224 max: 0.367583
diagonal:  Solving for T, Initial residual = 0, Final residual = 0, No Iterations 0
diagonal:  Solving for T, Initial residual = 0, Final residual = 0, No Iterations 0
diagonal:  Solving for T, Initial residual = 0, Final residual = 0, No Iterations 0
diagonal:  Solving for T, Initial residual = 0, Final residual = 0, No Iterations 0
 T goes from min(T) [0 0 0 0 0 0 0] -0.102751 to max(T) [0 0 0 0 0 0 0] 0.764883

ExecutionTime = 160.51 s  ClockTime = 161 s

Time = 4.965
Courant Number mean: 0.187224 max: 0.367635
diagonal:  Solving for T, Initial residual = 0, Final residual = 0, No Iterations 0
diagonal:  Solving for T, Initial residual = 0, Final residual = 0, No Iterations 0
diagonal:  Solving for T, Initial residual = 0, Final residual = 0, No Iterations 0
diagonal:  Solving for T, Initial residual = 0, Final residual = 0, No Iterations 0
 T goes from min(T) [0 0 0 0 0 0 0] -0.102607 to max(T) [0 0 0 0 0 0 0] 0.763585

ExecutionTime = 160.68 s  ClockTime = 161 s

Time = 4.97
Courant Number mean: 0.187211 max: 0.367658
diagonal:  Solving for T, Initial residual = 0, Final residual = 0, No Iterations 0
diagonal:  Solving for T, Initial residual = 0, Final residual = 0, No Iterations 0
diagonal:  Solving for T, Initial residual = 0, Final residual = 0, No Iterations 0
diagonal:  Solving for T, Initial residual = 0, Final residual = 0, No Iterations 0
 T goes from min(T) [0 0 0 0 0 0 0] -0.102654 to max(T) [0 0 0 0 0 0 0] 0.761651

ExecutionTime = 160.84 s  ClockTime = 161 s

Time = 4.975
Courant Number mean: 0.187188 max: 0.367653
diagonal:  Solving for T, Initial residual = 0, Final residual = 0, No Iterations 0
diagonal:  Solving for T, Initial residual = 0, Final residual = 0, No Iterations 0
diagonal:  Solving for T, Initial residual = 0, Final residual = 0, No Iterations 0
diagonal:  Solving for T, Initial residual = 0, Final residual = 0, No Iterations 0
 T goes from min(T) [0 0 0 0 0 0 0] -0.102718 to max(T) [0 0 0 0 0 0 0] 0.760209

ExecutionTime = 161 s  ClockTime = 161 s

Time = 4.98
Courant Number mean: 0.187168 max: 0.367637
diagonal:  Solving for T, Initial residual = 0, Final residual = 0, No Iterations 0
diagonal:  Solving for T, Initial residual = 0, Final residual = 0, No Iterations 0
diagonal:  Solving for T, Initial residual = 0, Final residual = 0, No Iterations 0
diagonal:  Solving for T, Initial residual = 0, Final residual = 0, No Iterations 0
 T goes from min(T) [0 0 0 0 0 0 0] -0.102664 to max(T) [0 0 0 0 0 0 0] 0.762163

ExecutionTime = 161.16 s  ClockTime = 161 s

Time = 4.985
Courant Number mean: 0.187205 max: 0.367681
diagonal:  Solving for T, Initial residual = 0, Final residual = 0, No Iterations 0
diagonal:  Solving for T, Initial residual = 0, Final residual = 0, No Iterations 0
diagonal:  Solving for T, Initial residual = 0, Final residual = 0, No Iterations 0
diagonal:  Solving for T, Initial residual = 0, Final residual = 0, No Iterations 0
 T goes from min(T) [0 0 0 0 0 0 0] -0.10249 to max(T) [0 0 0 0 0 0 0] 0.763531

ExecutionTime = 161.32 s  ClockTime = 161 s

Time = 4.99
Courant Number mean: 0.187233 max: 0.367697
diagonal:  Solving for T, Initial residual = 0, Final residual = 0, No Iterations 0
diagonal:  Solving for T, Initial residual = 0, Final residual = 0, No Iterations 0
diagonal:  Solving for T, Initial residual = 0, Final residual = 0, No Iterations 0
diagonal:  Solving for T, Initial residual = 0, Final residual = 0, No Iterations 0
 T goes from min(T) [0 0 0 0 0 0 0] -0.102639 to max(T) [0 0 0 0 0 0 0] 0.764299

ExecutionTime = 161.48 s  ClockTime = 162 s

Time = 4.995
Courant Number mean: 0.187248 max: 0.367685
diagonal:  Solving for T, Initial residual = 0, Final residual = 0, No Iterations 0
diagonal:  Solving for T, Initial residual = 0, Final residual = 0, No Iterations 0
diagonal:  Solving for T, Initial residual = 0, Final residual = 0, No Iterations 0
diagonal:  Solving for T, Initial residual = 0, Final residual = 0, No Iterations 0
 T goes from min(T) [0 0 0 0 0 0 0] -0.102682 to max(T) [0 0 0 0 0 0 0] 0.764455

ExecutionTime = 161.65 s  ClockTime = 162 s

Time = 5
Courant Number mean: 0.187253 max: 0.367645
diagonal:  Solving for T, Initial residual = 0, Final residual = 0, No Iterations 0
diagonal:  Solving for T, Initial residual = 0, Final residual = 0, No Iterations 0
diagonal:  Solving for T, Initial residual = 0, Final residual = 0, No Iterations 0
diagonal:  Solving for T, Initial residual = 0, Final residual = 0, No Iterations 0
 T goes from min(T) [0 0 0 0 0 0 0] -0.102603 to max(T) [0 0 0 0 0 0 0] 0.763994

ExecutionTime = 161.81 s  ClockTime = 162 s

End

