/*---------------------------------------------------------------------------*\
| =========                 |                                                 |
| \\      /  F ield         | OpenFOAM: The Open Source CFD Toolbox           |
|  \\    /   O peration     | Version:  dev                                   |
|   \\  /    A nd           | Web:      www.OpenFOAM.org                      |
|    \\/     M anipulation  |                                                 |
\*---------------------------------------------------------------------------*/
Build  : dev-90f39e0d894d
Exec   : scalarDeformationWithGhosts explicit -case nonOrthogW/240x120/c05_explicit
Date   : May 23 2017
Time   : 20:31:04
Host   : "sws02hw.private.rdg.ac.uk"
PID    : 22876
Case   : nonOrthogW/240x120/c05_explicit
nProcs : 1
sigFpe : Enabling floating point exception trapping (FOAM_SIGFPE).
fileModificationChecking : Monitoring run-time modified files using timeStampMaster (fileModificationSkew 10)
allowSystemOperations : Allowing user-supplied system call operations

// * * * * * * * * * * * * * * * * * * * * * * * * * * * * * * * * * * * * * //
Create time

Create mesh for time = 0

Reading field T

Reading fields phi (compulsory), U and Uf (optional)

Calculating owner stencils
Calculating neighbour stencils

Calculating scalar transport

Courant Number mean: 0.232799 max: 0.482541
Time = 0.0025
Courant Number mean: 0.232798 max: 0.482851
diagonal:  Solving for T, Initial residual = 0, Final residual = 0, No Iterations 0
diagonal:  Solving for T, Initial residual = 0, Final residual = 0, No Iterations 0
diagonal:  Solving for T, Initial residual = 0, Final residual = 0, No Iterations 0
diagonal:  Solving for T, Initial residual = 0, Final residual = 0, No Iterations 0
 T goes from min(T) [0 0 0 0 0 0 0] 8.08761e-21 to max(T) [0 0 0 0 0 0 0] 0.953908

ExecutionTime = 8.11 s  ClockTime = 72 s

Time = 0.005
Courant Number mean: 0.232796 max: 0.483154
diagonal:  Solving for T, Initial residual = 0, Final residual = 0, No Iterations 0
diagonal:  Solving for T, Initial residual = 0, Final residual = 0, No Iterations 0
diagonal:  Solving for T, Initial residual = 0, Final residual = 0, No Iterations 0
diagonal:  Solving for T, Initial residual = 0, Final residual = 0, No Iterations 0
 T goes from min(T) [0 0 0 0 0 0 0] 7.77045e-21 to max(T) [0 0 0 0 0 0 0] 0.953938

ExecutionTime = 8.62 s  ClockTime = 82 s

Time = 0.0075
Courant Number mean: 0.232792 max: 0.483448
diagonal:  Solving for T, Initial residual = 0, Final residual = 0, No Iterations 0
diagonal:  Solving for T, Initial residual = 0, Final residual = 0, No Iterations 0
diagonal:  Solving for T, Initial residual = 0, Final residual = 0, No Iterations 0
diagonal:  Solving for T, Initial residual = 0, Final residual = 0, No Iterations 0
 T goes from min(T) [0 0 0 0 0 0 0] 7.57484e-21 to max(T) [0 0 0 0 0 0 0] 0.953699

ExecutionTime = 9.12 s  ClockTime = 91 s

Time = 0.01
Courant Number mean: 0.232787 max: 0.483756
diagonal:  Solving for T, Initial residual = 0, Final residual = 0, No Iterations 0
diagonal:  Solving for T, Initial residual = 0, Final residual = 0, No Iterations 0
diagonal:  Solving for T, Initial residual = 0, Final residual = 0, No Iterations 0
diagonal:  Solving for T, Initial residual = 0, Final residual = 0, No Iterations 0
 T goes from min(T) [0 0 0 0 0 0 0] 7.49663e-21 to max(T) [0 0 0 0 0 0 0] 0.953257

ExecutionTime = 9.61 s  ClockTime = 101 s

Time = 0.0125
Courant Number mean: 0.232779 max: 0.484112
diagonal:  Solving for T, Initial residual = 0, Final residual = 0, No Iterations 0
diagonal:  Solving for T, Initial residual = 0, Final residual = 0, No Iterations 0
diagonal:  Solving for T, Initial residual = 0, Final residual = 0, No Iterations 0
diagonal:  Solving for T, Initial residual = 0, Final residual = 0, No Iterations 0
 T goes from min(T) [0 0 0 0 0 0 0] 7.53186e-21 to max(T) [0 0 0 0 0 0 0] 0.953629

ExecutionTime = 10.11 s  ClockTime = 110 s

Time = 0.015
Courant Number mean: 0.232769 max: 0.484461
diagonal:  Solving for T, Initial residual = 0, Final residual = 0, No Iterations 0
diagonal:  Solving for T, Initial residual = 0, Final residual = 0, No Iterations 0
diagonal:  Solving for T, Initial residual = 0, Final residual = 0, No Iterations 0
diagonal:  Solving for T, Initial residual = 0, Final residual = 0, No Iterations 0
 T goes from min(T) [0 0 0 0 0 0 0] 7.67681e-21 to max(T) [0 0 0 0 0 0 0] 0.953917

ExecutionTime = 10.58 s  ClockTime = 119 s

Time = 0.0175
Courant Number mean: 0.232758 max: 0.484801
diagonal:  Solving for T, Initial residual = 0, Final residual = 0, No Iterations 0
diagonal:  Solving for T, Initial residual = 0, Final residual = 0, No Iterations 0
diagonal:  Solving for T, Initial residual = 0, Final residual = 0, No Iterations 0
diagonal:  Solving for T, Initial residual = 0, Final residual = 0, No Iterations 0
 T goes from min(T) [0 0 0 0 0 0 0] 7.9281e-21 to max(T) [0 0 0 0 0 0 0] 0.953946

ExecutionTime = 11.11 s  ClockTime = 129 s

Time = 0.02
Courant Number mean: 0.232745 max: 0.485134
diagonal:  Solving for T, Initial residual = 0, Final residual = 0, No Iterations 0
diagonal:  Solving for T, Initial residual = 0, Final residual = 0, No Iterations 0
diagonal:  Solving for T, Initial residual = 0, Final residual = 0, No Iterations 0
diagonal:  Solving for T, Initial residual = 0, Final residual = 0, No Iterations 0
 T goes from min(T) [0 0 0 0 0 0 0] 8.28275e-21 to max(T) [0 0 0 0 0 0 0] 0.95372

ExecutionTime = 11.59 s  ClockTime = 139 s

Time = 0.0225
Courant Number mean: 0.232731 max: 0.485458
diagonal:  Solving for T, Initial residual = 0, Final residual = 0, No Iterations 0
diagonal:  Solving for T, Initial residual = 0, Final residual = 0, No Iterations 0
diagonal:  Solving for T, Initial residual = 0, Final residual = 0, No Iterations 0
diagonal:  Solving for T, Initial residual = 0, Final residual = 0, No Iterations 0
 T goes from min(T) [0 0 0 0 0 0 0] 8.44647e-21 to max(T) [0 0 0 0 0 0 0] 0.953805

ExecutionTime = 12.11 s  ClockTime = 149 s

Time = 0.025
Courant Number mean: 0.232715 max: 0.485775
diagonal:  Solving for T, Initial residual = 0, Final residual = 0, No Iterations 0
diagonal:  Solving for T, Initial residual = 0, Final residual = 0, No Iterations 0
diagonal:  Solving for T, Initial residual = 0, Final residual = 0, No Iterations 0
diagonal:  Solving for T, Initial residual = 0, Final residual = 0, No Iterations 0
 T goes from min(T) [0 0 0 0 0 0 0] 8.09726e-21 to max(T) [0 0 0 0 0 0 0] 0.953934

ExecutionTime = 12.62 s  ClockTime = 162 s

Time = 0.0275
Courant Number mean: 0.232697 max: 0.486084
diagonal:  Solving for T, Initial residual = 0, Final residual = 0, No Iterations 0
diagonal:  Solving for T, Initial residual = 0, Final residual = 0, No Iterations 0
diagonal:  Solving for T, Initial residual = 0, Final residual = 0, No Iterations 0
diagonal:  Solving for T, Initial residual = 0, Final residual = 0, No Iterations 0
 T goes from min(T) [0 0 0 0 0 0 0] 7.85981e-21 to max(T) [0 0 0 0 0 0 0] 0.953785

ExecutionTime = 13.17 s  ClockTime = 176 s

Time = 0.03
Courant Number mean: 0.232678 max: 0.486384
diagonal:  Solving for T, Initial residual = 0, Final residual = 0, No Iterations 0
diagonal:  Solving for T, Initial residual = 0, Final residual = 0, No Iterations 0
diagonal:  Solving for T, Initial residual = 0, Final residual = 0, No Iterations 0
diagonal:  Solving for T, Initial residual = 0, Final residual = 0, No Iterations 0
 T goes from min(T) [0 0 0 0 0 0 0] 7.73219e-21 to max(T) [0 0 0 0 0 0 0] 0.953353

ExecutionTime = 13.69 s  ClockTime = 186 s

Time = 0.0325
Courant Number mean: 0.232656 max: 0.486677
diagonal:  Solving for T, Initial residual = 0, Final residual = 0, No Iterations 0
diagonal:  Solving for T, Initial residual = 0, Final residual = 0, No Iterations 0
diagonal:  Solving for T, Initial residual = 0, Final residual = 0, No Iterations 0
diagonal:  Solving for T, Initial residual = 0, Final residual = 0, No Iterations 0
 T goes from min(T) [0 0 0 0 0 0 0] 7.71245e-21 to max(T) [0 0 0 0 0 0 0] 0.953575

ExecutionTime = 14.24 s  ClockTime = 198 s

Time = 0.035
Courant Number mean: 0.232633 max: 0.486961
diagonal:  Solving for T, Initial residual = 0, Final residual = 0, No Iterations 0
diagonal:  Solving for T, Initial residual = 0, Final residual = 0, No Iterations 0
diagonal:  Solving for T, Initial residual = 0, Final residual = 0, No Iterations 0
diagonal:  Solving for T, Initial residual = 0, Final residual = 0, No Iterations 0
 T goes from min(T) [0 0 0 0 0 0 0] 7.79869e-21 to max(T) [0 0 0 0 0 0 0] 0.953885

ExecutionTime = 14.75 s  ClockTime = 209 s

Time = 0.0375
Courant Number mean: 0.232608 max: 0.487237
diagonal:  Solving for T, Initial residual = 0, Final residual = 0, No Iterations 0
diagonal:  Solving for T, Initial residual = 0, Final residual = 0, No Iterations 0
diagonal:  Solving for T, Initial residual = 0, Final residual = 0, No Iterations 0
diagonal:  Solving for T, Initial residual = 0, Final residual = 0, No Iterations 0
 T goes from min(T) [0 0 0 0 0 0 0] 7.98914e-21 to max(T) [0 0 0 0 0 0 0] 0.953945

ExecutionTime = 15.29 s  ClockTime = 220 s

Time = 0.04
Courant Number mean: 0.232581 max: 0.487506
diagonal:  Solving for T, Initial residual = 0, Final residual = 0, No Iterations 0
diagonal:  Solving for T, Initial residual = 0, Final residual = 0, No Iterations 0
diagonal:  Solving for T, Initial residual = 0, Final residual = 0, No Iterations 0
diagonal:  Solving for T, Initial residual = 0, Final residual = 0, No Iterations 0
 T goes from min(T) [0 0 0 0 0 0 0] 8.28221e-21 to max(T) [0 0 0 0 0 0 0] 0.953761

ExecutionTime = 15.8 s  ClockTime = 231 s

Time = 0.0425
Courant Number mean: 0.232553 max: 0.487844
diagonal:  Solving for T, Initial residual = 0, Final residual = 0, No Iterations 0
diagonal:  Solving for T, Initial residual = 0, Final residual = 0, No Iterations 0
diagonal:  Solving for T, Initial residual = 0, Final residual = 0, No Iterations 0
diagonal:  Solving for T, Initial residual = 0, Final residual = 0, No Iterations 0
 T goes from min(T) [0 0 0 0 0 0 0] 8.62596e-21 to max(T) [0 0 0 0 0 0 0] 0.953582

ExecutionTime = 16.3 s  ClockTime = 241 s

Time = 0.045
Courant Number mean: 0.232523 max: 0.488174
diagonal:  Solving for T, Initial residual = 0, Final residual = 0, No Iterations 0
diagonal:  Solving for T, Initial residual = 0, Final residual = 0, No Iterations 0
diagonal:  Solving for T, Initial residual = 0, Final residual = 0, No Iterations 0
diagonal:  Solving for T, Initial residual = 0, Final residual = 0, No Iterations 0
 T goes from min(T) [0 0 0 0 0 0 0] 8.25995e-21 to max(T) [0 0 0 0 0 0 0] 0.953865

ExecutionTime = 16.8 s  ClockTime = 252 s

Time = 0.0475
Courant Number mean: 0.232492 max: 0.488496
diagonal:  Solving for T, Initial residual = 0, Final residual = 0, No Iterations 0
diagonal:  Solving for T, Initial residual = 0, Final residual = 0, No Iterations 0
diagonal:  Solving for T, Initial residual = 0, Final residual = 0, No Iterations 0
diagonal:  Solving for T, Initial residual = 0, Final residual = 0, No Iterations 0
 T goes from min(T) [0 0 0 0 0 0 0] 8.00006e-21 to max(T) [0 0 0 0 0 0 0] 0.953861

ExecutionTime = 17.3 s  ClockTime = 262 s

Time = 0.05
Courant Number mean: 0.232459 max: 0.48881
diagonal:  Solving for T, Initial residual = 0, Final residual = 0, No Iterations 0
diagonal:  Solving for T, Initial residual = 0, Final residual = 0, No Iterations 0
diagonal:  Solving for T, Initial residual = 0, Final residual = 0, No Iterations 0
diagonal:  Solving for T, Initial residual = 0, Final residual = 0, No Iterations 0
 T goes from min(T) [0 0 0 0 0 0 0] 7.84499e-21 to max(T) [0 0 0 0 0 0 0] 0.953566

ExecutionTime = 17.79 s  ClockTime = 271 s

Time = 0.0525
Courant Number mean: 0.232424 max: 0.489116
diagonal:  Solving for T, Initial residual = 0, Final residual = 0, No Iterations 0
diagonal:  Solving for T, Initial residual = 0, Final residual = 0, No Iterations 0
diagonal:  Solving for T, Initial residual = 0, Final residual = 0, No Iterations 0
diagonal:  Solving for T, Initial residual = 0, Final residual = 0, No Iterations 0
 T goes from min(T) [0 0 0 0 0 0 0] 7.79352e-21 to max(T) [0 0 0 0 0 0 0] 0.953515

ExecutionTime = 18.27 s  ClockTime = 281 s

Time = 0.055
Courant Number mean: 0.232387 max: 0.489414
diagonal:  Solving for T, Initial residual = 0, Final residual = 0, No Iterations 0
diagonal:  Solving for T, Initial residual = 0, Final residual = 0, No Iterations 0
diagonal:  Solving for T, Initial residual = 0, Final residual = 0, No Iterations 0
diagonal:  Solving for T, Initial residual = 0, Final residual = 0, No Iterations 0
 T goes from min(T) [0 0 0 0 0 0 0] 7.8445e-21 to max(T) [0 0 0 0 0 0 0] 0.95383

ExecutionTime = 18.79 s  ClockTime = 291 s

Time = 0.0575
Courant Number mean: 0.232349 max: 0.489704
diagonal:  Solving for T, Initial residual = 0, Final residual = 0, No Iterations 0
diagonal:  Solving for T, Initial residual = 0, Final residual = 0, No Iterations 0
diagonal:  Solving for T, Initial residual = 0, Final residual = 0, No Iterations 0
diagonal:  Solving for T, Initial residual = 0, Final residual = 0, No Iterations 0
 T goes from min(T) [0 0 0 0 0 0 0] 7.99694e-21 to max(T) [0 0 0 0 0 0 0] 0.953906

ExecutionTime = 19.3 s  ClockTime = 300 s

Time = 0.06
Courant Number mean: 0.232308 max: 0.489985
diagonal:  Solving for T, Initial residual = 0, Final residual = 0, No Iterations 0
diagonal:  Solving for T, Initial residual = 0, Final residual = 0, No Iterations 0
diagonal:  Solving for T, Initial residual = 0, Final residual = 0, No Iterations 0
diagonal:  Solving for T, Initial residual = 0, Final residual = 0, No Iterations 0
 T goes from min(T) [0 0 0 0 0 0 0] 8.25e-21 to max(T) [0 0 0 0 0 0 0] 0.953748

ExecutionTime = 19.77 s  ClockTime = 309 s

Time = 0.0625
Courant Number mean: 0.232266 max: 0.490259
diagonal:  Solving for T, Initial residual = 0, Final residual = 0, No Iterations 0
diagonal:  Solving for T, Initial residual = 0, Final residual = 0, No Iterations 0
diagonal:  Solving for T, Initial residual = 0, Final residual = 0, No Iterations 0
diagonal:  Solving for T, Initial residual = 0, Final residual = 0, No Iterations 0
 T goes from min(T) [0 0 0 0 0 0 0] 8.60307e-21 to max(T) [0 0 0 0 0 0 0] 0.953361

ExecutionTime = 20.27 s  ClockTime = 319 s

Time = 0.065
Courant Number mean: 0.232223 max: 0.490553
diagonal:  Solving for T, Initial residual = 0, Final residual = 0, No Iterations 0
diagonal:  Solving for T, Initial residual = 0, Final residual = 0, No Iterations 0
diagonal:  Solving for T, Initial residual = 0, Final residual = 0, No Iterations 0
diagonal:  Solving for T, Initial residual = 0, Final residual = 0, No Iterations 0
 T goes from min(T) [0 0 0 0 0 0 0] 8.36991e-21 to max(T) [0 0 0 0 0 0 0] 0.953633

ExecutionTime = 20.75 s  ClockTime = 328 s

Time = 0.0675
Courant Number mean: 0.232178 max: 0.490856
diagonal:  Solving for T, Initial residual = 0, Final residual = 0, No Iterations 0
diagonal:  Solving for T, Initial residual = 0, Final residual = 0, No Iterations 0
diagonal:  Solving for T, Initial residual = 0, Final residual = 0, No Iterations 0
diagonal:  Solving for T, Initial residual = 0, Final residual = 0, No Iterations 0
 T goes from min(T) [0 0 0 0 0 0 0] 8.08504e-21 to max(T) [0 0 0 0 0 0 0] 0.953846

ExecutionTime = 21.25 s  ClockTime = 337 s

Time = 0.07
Courant Number mean: 0.232131 max: 0.491151
diagonal:  Solving for T, Initial residual = 0, Final residual = 0, No Iterations 0
diagonal:  Solving for T, Initial residual = 0, Final residual = 0, No Iterations 0
diagonal:  Solving for T, Initial residual = 0, Final residual = 0, No Iterations 0
diagonal:  Solving for T, Initial residual = 0, Final residual = 0, No Iterations 0
 T goes from min(T) [0 0 0 0 0 0 0] 7.90221e-21 to max(T) [0 0 0 0 0 0 0] 0.953761

ExecutionTime = 21.74 s  ClockTime = 347 s

Time = 0.0725
Courant Number mean: 0.232083 max: 0.491438
diagonal:  Solving for T, Initial residual = 0, Final residual = 0, No Iterations 0
diagonal:  Solving for T, Initial residual = 0, Final residual = 0, No Iterations 0
diagonal:  Solving for T, Initial residual = 0, Final residual = 0, No Iterations 0
diagonal:  Solving for T, Initial residual = 0, Final residual = 0, No Iterations 0
 T goes from min(T) [0 0 0 0 0 0 0] 7.82038e-21 to max(T) [0 0 0 0 0 0 0] 0.953372

ExecutionTime = 22.26 s  ClockTime = 356 s

Time = 0.075
Courant Number mean: 0.232033 max: 0.491717
diagonal:  Solving for T, Initial residual = 0, Final residual = 0, No Iterations 0
diagonal:  Solving for T, Initial residual = 0, Final residual = 0, No Iterations 0
diagonal:  Solving for T, Initial residual = 0, Final residual = 0, No Iterations 0
diagonal:  Solving for T, Initial residual = 0, Final residual = 0, No Iterations 0
 T goes from min(T) [0 0 0 0 0 0 0] 7.83868e-21 to max(T) [0 0 0 0 0 0 0] 0.95365

ExecutionTime = 22.75 s  ClockTime = 366 s

Time = 0.0775
Courant Number mean: 0.231981 max: 0.491987
diagonal:  Solving for T, Initial residual = 0, Final residual = 0, No Iterations 0
diagonal:  Solving for T, Initial residual = 0, Final residual = 0, No Iterations 0
diagonal:  Solving for T, Initial residual = 0, Final residual = 0, No Iterations 0
diagonal:  Solving for T, Initial residual = 0, Final residual = 0, No Iterations 0
 T goes from min(T) [0 0 0 0 0 0 0] 7.95641e-21 to max(T) [0 0 0 0 0 0 0] 0.953806

ExecutionTime = 23.24 s  ClockTime = 375 s

Time = 0.08
Courant Number mean: 0.231927 max: 0.492249
diagonal:  Solving for T, Initial residual = 0, Final residual = 0, No Iterations 0
diagonal:  Solving for T, Initial residual = 0, Final residual = 0, No Iterations 0
diagonal:  Solving for T, Initial residual = 0, Final residual = 0, No Iterations 0
diagonal:  Solving for T, Initial residual = 0, Final residual = 0, No Iterations 0
 T goes from min(T) [0 0 0 0 0 0 0] 8.1731e-21 to max(T) [0 0 0 0 0 0 0] 0.95377

ExecutionTime = 23.74 s  ClockTime = 385 s

Time = 0.0825
Courant Number mean: 0.231872 max: 0.492525
diagonal:  Solving for T, Initial residual = 0, Final residual = 0, No Iterations 0
diagonal:  Solving for T, Initial residual = 0, Final residual = 0, No Iterations 0
diagonal:  Solving for T, Initial residual = 0, Final residual = 0, No Iterations 0
diagonal:  Solving for T, Initial residual = 0, Final residual = 0, No Iterations 0
 T goes from min(T) [0 0 0 0 0 0 0] 8.48848e-21 to max(T) [0 0 0 0 0 0 0] 0.953425

ExecutionTime = 24.21 s  ClockTime = 393 s

Time = 0.085
Courant Number mean: 0.231814 max: 0.492803
diagonal:  Solving for T, Initial residual = 0, Final residual = 0, No Iterations 0
diagonal:  Solving for T, Initial residual = 0, Final residual = 0, No Iterations 0
diagonal:  Solving for T, Initial residual = 0, Final residual = 0, No Iterations 0
diagonal:  Solving for T, Initial residual = 0, Final residual = 0, No Iterations 0
 T goes from min(T) [0 0 0 0 0 0 0] 8.45872e-21 to max(T) [0 0 0 0 0 0 0] 0.953668

ExecutionTime = 24.73 s  ClockTime = 401 s

Time = 0.0875
Courant Number mean: 0.231756 max: 0.493105
diagonal:  Solving for T, Initial residual = 0, Final residual = 0, No Iterations 0
diagonal:  Solving for T, Initial residual = 0, Final residual = 0, No Iterations 0
diagonal:  Solving for T, Initial residual = 0, Final residual = 0, No Iterations 0
diagonal:  Solving for T, Initial residual = 0, Final residual = 0, No Iterations 0
 T goes from min(T) [0 0 0 0 0 0 0] 8.14825e-21 to max(T) [0 0 0 0 0 0 0] 0.953817

ExecutionTime = 25.22 s  ClockTime = 409 s

Time = 0.09
Courant Number mean: 0.231696 max: 0.493413
diagonal:  Solving for T, Initial residual = 0, Final residual = 0, No Iterations 0
diagonal:  Solving for T, Initial residual = 0, Final residual = 0, No Iterations 0
diagonal:  Solving for T, Initial residual = 0, Final residual = 0, No Iterations 0
diagonal:  Solving for T, Initial residual = 0, Final residual = 0, No Iterations 0
 T goes from min(T) [0 0 0 0 0 0 0] 7.93805e-21 to max(T) [0 0 0 0 0 0 0] 0.953792

ExecutionTime = 25.69 s  ClockTime = 416 s

Time = 0.0925
Courant Number mean: 0.231634 max: 0.493714
diagonal:  Solving for T, Initial residual = 0, Final residual = 0, No Iterations 0
diagonal:  Solving for T, Initial residual = 0, Final residual = 0, No Iterations 0
diagonal:  Solving for T, Initial residual = 0, Final residual = 0, No Iterations 0
diagonal:  Solving for T, Initial residual = 0, Final residual = 0, No Iterations 0
 T goes from min(T) [0 0 0 0 0 0 0] 7.82712e-21 to max(T) [0 0 0 0 0 0 0] 0.953697

ExecutionTime = 26.2 s  ClockTime = 423 s

Time = 0.095
Courant Number mean: 0.23157 max: 0.494006
diagonal:  Solving for T, Initial residual = 0, Final residual = 0, No Iterations 0
diagonal:  Solving for T, Initial residual = 0, Final residual = 0, No Iterations 0
diagonal:  Solving for T, Initial residual = 0, Final residual = 0, No Iterations 0
diagonal:  Solving for T, Initial residual = 0, Final residual = 0, No Iterations 0
 T goes from min(T) [0 0 0 0 0 0 0] 7.81466e-21 to max(T) [0 0 0 0 0 0 0] 0.95334

ExecutionTime = 26.71 s  ClockTime = 431 s

Time = 0.0975
Courant Number mean: 0.231505 max: 0.49429
diagonal:  Solving for T, Initial residual = 0, Final residual = 0, No Iterations 0
diagonal:  Solving for T, Initial residual = 0, Final residual = 0, No Iterations 0
diagonal:  Solving for T, Initial residual = 0, Final residual = 0, No Iterations 0
diagonal:  Solving for T, Initial residual = 0, Final residual = 0, No Iterations 0
 T goes from min(T) [0 0 0 0 0 0 0] 7.90014e-21 to max(T) [0 0 0 0 0 0 0] 0.953556

ExecutionTime = 27.23 s  ClockTime = 439 s

Time = 0.1
Courant Number mean: 0.231437 max: 0.494565
diagonal:  Solving for T, Initial residual = 0, Final residual = 0, No Iterations 0
diagonal:  Solving for T, Initial residual = 0, Final residual = 0, No Iterations 0
diagonal:  Solving for T, Initial residual = 0, Final residual = 0, No Iterations 0
diagonal:  Solving for T, Initial residual = 0, Final residual = 0, No Iterations 0
 T goes from min(T) [0 0 0 0 0 0 0] 8.08322e-21 to max(T) [0 0 0 0 0 0 0] 0.953868

ExecutionTime = 27.72 s  ClockTime = 446 s

Time = 0.1025
Courant Number mean: 0.231368 max: 0.494833
diagonal:  Solving for T, Initial residual = 0, Final residual = 0, No Iterations 0
diagonal:  Solving for T, Initial residual = 0, Final residual = 0, No Iterations 0
diagonal:  Solving for T, Initial residual = 0, Final residual = 0, No Iterations 0
diagonal:  Solving for T, Initial residual = 0, Final residual = 0, No Iterations 0
 T goes from min(T) [0 0 0 0 0 0 0] 8.36385e-21 to max(T) [0 0 0 0 0 0 0] 0.953866

ExecutionTime = 28.25 s  ClockTime = 454 s

Time = 0.105
Courant Number mean: 0.231298 max: 0.495092
diagonal:  Solving for T, Initial residual = 0, Final residual = 0, No Iterations 0
diagonal:  Solving for T, Initial residual = 0, Final residual = 0, No Iterations 0
diagonal:  Solving for T, Initial residual = 0, Final residual = 0, No Iterations 0
diagonal:  Solving for T, Initial residual = 0, Final residual = 0, No Iterations 0
 T goes from min(T) [0 0 0 0 0 0 0] 8.54082e-21 to max(T) [0 0 0 0 0 0 0] 0.953836

ExecutionTime = 28.77 s  ClockTime = 462 s

Time = 0.1075
Courant Number mean: 0.231225 max: 0.495343
diagonal:  Solving for T, Initial residual = 0, Final residual = 0, No Iterations 0
diagonal:  Solving for T, Initial residual = 0, Final residual = 0, No Iterations 0
diagonal:  Solving for T, Initial residual = 0, Final residual = 0, No Iterations 0
diagonal:  Solving for T, Initial residual = 0, Final residual = 0, No Iterations 0
 T goes from min(T) [0 0 0 0 0 0 0] 8.20458e-21 to max(T) [0 0 0 0 0 0 0] 0.953993

ExecutionTime = 29.29 s  ClockTime = 470 s

Time = 0.11
Courant Number mean: 0.231152 max: 0.495586
diagonal:  Solving for T, Initial residual = 0, Final residual = 0, No Iterations 0
diagonal:  Solving for T, Initial residual = 0, Final residual = 0, No Iterations 0
diagonal:  Solving for T, Initial residual = 0, Final residual = 0, No Iterations 0
diagonal:  Solving for T, Initial residual = 0, Final residual = 0, No Iterations 0
 T goes from min(T) [0 0 0 0 0 0 0] 7.96741e-21 to max(T) [0 0 0 0 0 0 0] 0.953937

ExecutionTime = 29.79 s  ClockTime = 477 s

Time = 0.1125
Courant Number mean: 0.231077 max: 0.49582
diagonal:  Solving for T, Initial residual = 0, Final residual = 0, No Iterations 0
diagonal:  Solving for T, Initial residual = 0, Final residual = 0, No Iterations 0
diagonal:  Solving for T, Initial residual = 0, Final residual = 0, No Iterations 0
diagonal:  Solving for T, Initial residual = 0, Final residual = 0, No Iterations 0
 T goes from min(T) [0 0 0 0 0 0 0] 7.82828e-21 to max(T) [0 0 0 0 0 0 0] 0.953704

ExecutionTime = 30.28 s  ClockTime = 485 s

Time = 0.115
Courant Number mean: 0.230999 max: 0.496063
diagonal:  Solving for T, Initial residual = 0, Final residual = 0, No Iterations 0
diagonal:  Solving for T, Initial residual = 0, Final residual = 0, No Iterations 0
diagonal:  Solving for T, Initial residual = 0, Final residual = 0, No Iterations 0
diagonal:  Solving for T, Initial residual = 0, Final residual = 0, No Iterations 0
 T goes from min(T) [0 0 0 0 0 0 0] 7.78643e-21 to max(T) [0 0 0 0 0 0 0] 0.953695

ExecutionTime = 30.77 s  ClockTime = 492 s

Time = 0.1175
Courant Number mean: 0.230921 max: 0.49636
diagonal:  Solving for T, Initial residual = 0, Final residual = 0, No Iterations 0
diagonal:  Solving for T, Initial residual = 0, Final residual = 0, No Iterations 0
diagonal:  Solving for T, Initial residual = 0, Final residual = 0, No Iterations 0
diagonal:  Solving for T, Initial residual = 0, Final residual = 0, No Iterations 0
 T goes from min(T) [0 0 0 0 0 0 0] 7.84133e-21 to max(T) [0 0 0 0 0 0 0] 0.953362

ExecutionTime = 31.28 s  ClockTime = 500 s

Time = 0.12
Courant Number mean: 0.23084 max: 0.496648
diagonal:  Solving for T, Initial residual = 0, Final residual = 0, No Iterations 0
diagonal:  Solving for T, Initial residual = 0, Final residual = 0, No Iterations 0
diagonal:  Solving for T, Initial residual = 0, Final residual = 0, No Iterations 0
diagonal:  Solving for T, Initial residual = 0, Final residual = 0, No Iterations 0
 T goes from min(T) [0 0 0 0 0 0 0] 7.99276e-21 to max(T) [0 0 0 0 0 0 0] 0.953363

ExecutionTime = 31.8 s  ClockTime = 507 s

Time = 0.1225
Courant Number mean: 0.230758 max: 0.496929
diagonal:  Solving for T, Initial residual = 0, Final residual = 0, No Iterations 0
diagonal:  Solving for T, Initial residual = 0, Final residual = 0, No Iterations 0
diagonal:  Solving for T, Initial residual = 0, Final residual = 0, No Iterations 0
diagonal:  Solving for T, Initial residual = 0, Final residual = 0, No Iterations 0
 T goes from min(T) [0 0 0 0 0 0 0] 8.24074e-21 to max(T) [0 0 0 0 0 0 0] 0.953826

ExecutionTime = 32.31 s  ClockTime = 515 s

Time = 0.125
Courant Number mean: 0.230674 max: 0.497201
diagonal:  Solving for T, Initial residual = 0, Final residual = 0, No Iterations 0
diagonal:  Solving for T, Initial residual = 0, Final residual = 0, No Iterations 0
diagonal:  Solving for T, Initial residual = 0, Final residual = 0, No Iterations 0
diagonal:  Solving for T, Initial residual = 0, Final residual = 0, No Iterations 0
 T goes from min(T) [0 0 0 0 0 0 0] 8.58562e-21 to max(T) [0 0 0 0 0 0 0] 0.953965

ExecutionTime = 32.82 s  ClockTime = 523 s

Time = 0.1275
Courant Number mean: 0.230588 max: 0.497465
diagonal:  Solving for T, Initial residual = 0, Final residual = 0, No Iterations 0
diagonal:  Solving for T, Initial residual = 0, Final residual = 0, No Iterations 0
diagonal:  Solving for T, Initial residual = 0, Final residual = 0, No Iterations 0
diagonal:  Solving for T, Initial residual = 0, Final residual = 0, No Iterations 0
 T goes from min(T) [0 0 0 0 0 0 0] 8.26179e-21 to max(T) [0 0 0 0 0 0 0] 0.954082

ExecutionTime = 33.34 s  ClockTime = 530 s

Time = 0.13
Courant Number mean: 0.230501 max: 0.497721
diagonal:  Solving for T, Initial residual = 0, Final residual = 0, No Iterations 0
diagonal:  Solving for T, Initial residual = 0, Final residual = 0, No Iterations 0
diagonal:  Solving for T, Initial residual = 0, Final residual = 0, No Iterations 0
diagonal:  Solving for T, Initial residual = 0, Final residual = 0, No Iterations 0
 T goes from min(T) [0 0 0 0 0 0 0] 7.99808e-21 to max(T) [0 0 0 0 0 0 0] 0.954034

ExecutionTime = 33.9 s  ClockTime = 539 s

Time = 0.1325
Courant Number mean: 0.230412 max: 0.497969
diagonal:  Solving for T, Initial residual = 0, Final residual = 0, No Iterations 0
diagonal:  Solving for T, Initial residual = 0, Final residual = 0, No Iterations 0
diagonal:  Solving for T, Initial residual = 0, Final residual = 0, No Iterations 0
diagonal:  Solving for T, Initial residual = 0, Final residual = 0, No Iterations 0
 T goes from min(T) [0 0 0 0 0 0 0] 7.83152e-21 to max(T) [0 0 0 0 0 0 0] 0.953789

ExecutionTime = 34.44 s  ClockTime = 547 s

Time = 0.135
Courant Number mean: 0.230322 max: 0.498208
diagonal:  Solving for T, Initial residual = 0, Final residual = 0, No Iterations 0
diagonal:  Solving for T, Initial residual = 0, Final residual = 0, No Iterations 0
diagonal:  Solving for T, Initial residual = 0, Final residual = 0, No Iterations 0
diagonal:  Solving for T, Initial residual = 0, Final residual = 0, No Iterations 0
 T goes from min(T) [0 0 0 0 0 0 0] 7.76132e-21 to max(T) [0 0 0 0 0 0 0] 0.95348

ExecutionTime = 34.93 s  ClockTime = 554 s

Time = 0.1375
Courant Number mean: 0.23023 max: 0.498439
diagonal:  Solving for T, Initial residual = 0, Final residual = 0, No Iterations 0
diagonal:  Solving for T, Initial residual = 0, Final residual = 0, No Iterations 0
diagonal:  Solving for T, Initial residual = 0, Final residual = 0, No Iterations 0
diagonal:  Solving for T, Initial residual = 0, Final residual = 0, No Iterations 0
 T goes from min(T) [0 0 0 0 0 0 0] 7.78695e-21 to max(T) [0 0 0 0 0 0 0] 0.95368

ExecutionTime = 35.43 s  ClockTime = 562 s

Time = 0.14
Courant Number mean: 0.230136 max: 0.498661
diagonal:  Solving for T, Initial residual = 0, Final residual = 0, No Iterations 0
diagonal:  Solving for T, Initial residual = 0, Final residual = 0, No Iterations 0
diagonal:  Solving for T, Initial residual = 0, Final residual = 0, No Iterations 0
diagonal:  Solving for T, Initial residual = 0, Final residual = 0, No Iterations 0
 T goes from min(T) [0 0 0 0 0 0 0] 7.90822e-21 to max(T) [0 0 0 0 0 0 0] 0.953548

ExecutionTime = 35.92 s  ClockTime = 569 s

Time = 0.1425
Courant Number mean: 0.230041 max: 0.498893
diagonal:  Solving for T, Initial residual = 0, Final residual = 0, No Iterations 0
diagonal:  Solving for T, Initial residual = 0, Final residual = 0, No Iterations 0
diagonal:  Solving for T, Initial residual = 0, Final residual = 0, No Iterations 0
diagonal:  Solving for T, Initial residual = 0, Final residual = 0, No Iterations 0
 T goes from min(T) [0 0 0 0 0 0 0] 8.12521e-21 to max(T) [0 0 0 0 0 0 0] 0.953485

ExecutionTime = 36.42 s  ClockTime = 576 s

Time = 0.145
Courant Number mean: 0.229943 max: 0.499147
diagonal:  Solving for T, Initial residual = 0, Final residual = 0, No Iterations 0
diagonal:  Solving for T, Initial residual = 0, Final residual = 0, No Iterations 0
diagonal:  Solving for T, Initial residual = 0, Final residual = 0, No Iterations 0
diagonal:  Solving for T, Initial residual = 0, Final residual = 0, No Iterations 0
 T goes from min(T) [0 0 0 0 0 0 0] 8.43831e-21 to max(T) [0 0 0 0 0 0 0] 0.953834

ExecutionTime = 36.96 s  ClockTime = 585 s

Time = 0.1475
Courant Number mean: 0.229844 max: 0.499392
diagonal:  Solving for T, Initial residual = 0, Final residual = 0, No Iterations 0
diagonal:  Solving for T, Initial residual = 0, Final residual = 0, No Iterations 0
diagonal:  Solving for T, Initial residual = 0, Final residual = 0, No Iterations 0
diagonal:  Solving for T, Initial residual = 0, Final residual = 0, No Iterations 0
 T goes from min(T) [0 0 0 0 0 0 0] 8.3219e-21 to max(T) [0 0 0 0 0 0 0] 0.953985

ExecutionTime = 37.56 s  ClockTime = 594 s

Time = 0.15
Courant Number mean: 0.229743 max: 0.499629
diagonal:  Solving for T, Initial residual = 0, Final residual = 0, No Iterations 0
diagonal:  Solving for T, Initial residual = 0, Final residual = 0, No Iterations 0
diagonal:  Solving for T, Initial residual = 0, Final residual = 0, No Iterations 0
diagonal:  Solving for T, Initial residual = 0, Final residual = 0, No Iterations 0
 T goes from min(T) [0 0 0 0 0 0 0] 8.03194e-21 to max(T) [0 0 0 0 0 0 0] 0.953996

ExecutionTime = 38.08 s  ClockTime = 602 s

Time = 0.1525
Courant Number mean: 0.229641 max: 0.49988
diagonal:  Solving for T, Initial residual = 0, Final residual = 0, No Iterations 0
diagonal:  Solving for T, Initial residual = 0, Final residual = 0, No Iterations 0
diagonal:  Solving for T, Initial residual = 0, Final residual = 0, No Iterations 0
diagonal:  Solving for T, Initial residual = 0, Final residual = 0, No Iterations 0
 T goes from min(T) [0 0 0 0 0 0 0] 7.83847e-21 to max(T) [0 0 0 0 0 0 0] 0.95374

ExecutionTime = 38.58 s  ClockTime = 609 s

Time = 0.155
Courant Number mean: 0.229538 max: 0.500132
diagonal:  Solving for T, Initial residual = 0, Final residual = 0, No Iterations 0
diagonal:  Solving for T, Initial residual = 0, Final residual = 0, No Iterations 0
diagonal:  Solving for T, Initial residual = 0, Final residual = 0, No Iterations 0
diagonal:  Solving for T, Initial residual = 0, Final residual = 0, No Iterations 0
 T goes from min(T) [0 0 0 0 0 0 0] 7.74064e-21 to max(T) [0 0 0 0 0 0 0] 0.95346

ExecutionTime = 39.09 s  ClockTime = 617 s

Time = 0.1575
Courant Number mean: 0.229434 max: 0.500375
diagonal:  Solving for T, Initial residual = 0, Final residual = 0, No Iterations 0
diagonal:  Solving for T, Initial residual = 0, Final residual = 0, No Iterations 0
diagonal:  Solving for T, Initial residual = 0, Final residual = 0, No Iterations 0
diagonal:  Solving for T, Initial residual = 0, Final residual = 0, No Iterations 0
 T goes from min(T) [0 0 0 0 0 0 0] 7.73793e-21 to max(T) [0 0 0 0 0 0 0] 0.953593

ExecutionTime = 39.58 s  ClockTime = 624 s

Time = 0.16
Courant Number mean: 0.229329 max: 0.50061
diagonal:  Solving for T, Initial residual = 0, Final residual = 0, No Iterations 0
diagonal:  Solving for T, Initial residual = 0, Final residual = 0, No Iterations 0
diagonal:  Solving for T, Initial residual = 0, Final residual = 0, No Iterations 0
diagonal:  Solving for T, Initial residual = 0, Final residual = 0, No Iterations 0
 T goes from min(T) [0 0 0 0 0 0 0] 7.8301e-21 to max(T) [0 0 0 0 0 0 0] 0.953536

ExecutionTime = 40.07 s  ClockTime = 631 s

Time = 0.1625
Courant Number mean: 0.229223 max: 0.500837
diagonal:  Solving for T, Initial residual = 0, Final residual = 0, No Iterations 0
diagonal:  Solving for T, Initial residual = 0, Final residual = 0, No Iterations 0
diagonal:  Solving for T, Initial residual = 0, Final residual = 0, No Iterations 0
diagonal:  Solving for T, Initial residual = 0, Final residual = 0, No Iterations 0
 T goes from min(T) [0 0 0 0 0 0 0] 8.01725e-21 to max(T) [0 0 0 0 0 0 0] 0.953626

ExecutionTime = 40.56 s  ClockTime = 639 s

Time = 0.165
Courant Number mean: 0.229116 max: 0.501069
diagonal:  Solving for T, Initial residual = 0, Final residual = 0, No Iterations 0
diagonal:  Solving for T, Initial residual = 0, Final residual = 0, No Iterations 0
diagonal:  Solving for T, Initial residual = 0, Final residual = 0, No Iterations 0
diagonal:  Solving for T, Initial residual = 0, Final residual = 0, No Iterations 0
 T goes from min(T) [0 0 0 0 0 0 0] 8.2998e-21 to max(T) [0 0 0 0 0 0 0] 0.953507

ExecutionTime = 41.14 s  ClockTime = 647 s

Time = 0.1675
Courant Number mean: 0.229007 max: 0.501327
diagonal:  Solving for T, Initial residual = 0, Final residual = 0, No Iterations 0
diagonal:  Solving for T, Initial residual = 0, Final residual = 0, No Iterations 0
diagonal:  Solving for T, Initial residual = 0, Final residual = 0, No Iterations 0
diagonal:  Solving for T, Initial residual = 0, Final residual = 0, No Iterations 0
 T goes from min(T) [0 0 0 0 0 0 0] 8.38645e-21 to max(T) [0 0 0 0 0 0 0] 0.95354

ExecutionTime = 41.66 s  ClockTime = 655 s

Time = 0.17
Courant Number mean: 0.228896 max: 0.501577
diagonal:  Solving for T, Initial residual = 0, Final residual = 0, No Iterations 0
diagonal:  Solving for T, Initial residual = 0, Final residual = 0, No Iterations 0
diagonal:  Solving for T, Initial residual = 0, Final residual = 0, No Iterations 0
diagonal:  Solving for T, Initial residual = 0, Final residual = 0, No Iterations 0
 T goes from min(T) [0 0 0 0 0 0 0] 8.07046e-21 to max(T) [0 0 0 0 0 0 0] 0.953511

ExecutionTime = 42.22 s  ClockTime = 664 s

Time = 0.1725
Courant Number mean: 0.228784 max: 0.501819
diagonal:  Solving for T, Initial residual = 0, Final residual = 0, No Iterations 0
diagonal:  Solving for T, Initial residual = 0, Final residual = 0, No Iterations 0
diagonal:  Solving for T, Initial residual = 0, Final residual = 0, No Iterations 0
diagonal:  Solving for T, Initial residual = 0, Final residual = 0, No Iterations 0
 T goes from min(T) [0 0 0 0 0 0 0] 7.85048e-21 to max(T) [0 0 0 0 0 0 0] 0.953848

ExecutionTime = 42.74 s  ClockTime = 671 s

Time = 0.175
Courant Number mean: 0.228671 max: 0.502052
diagonal:  Solving for T, Initial residual = 0, Final residual = 0, No Iterations 0
diagonal:  Solving for T, Initial residual = 0, Final residual = 0, No Iterations 0
diagonal:  Solving for T, Initial residual = 0, Final residual = 0, No Iterations 0
diagonal:  Solving for T, Initial residual = 0, Final residual = 0, No Iterations 0
 T goes from min(T) [0 0 0 0 0 0 0] 7.72558e-21 to max(T) [0 0 0 0 0 0 0] 0.95403

ExecutionTime = 43.22 s  ClockTime = 679 s

Time = 0.1775
Courant Number mean: 0.228557 max: 0.502277
diagonal:  Solving for T, Initial residual = 0, Final residual = 0, No Iterations 0
diagonal:  Solving for T, Initial residual = 0, Final residual = 0, No Iterations 0
diagonal:  Solving for T, Initial residual = 0, Final residual = 0, No Iterations 0
diagonal:  Solving for T, Initial residual = 0, Final residual = 0, No Iterations 0
 T goes from min(T) [0 0 0 0 0 0 0] 7.6952e-21 to max(T) [0 0 0 0 0 0 0] 0.954045

ExecutionTime = 43.72 s  ClockTime = 686 s

Time = 0.18
Courant Number mean: 0.228443 max: 0.502494
diagonal:  Solving for T, Initial residual = 0, Final residual = 0, No Iterations 0
diagonal:  Solving for T, Initial residual = 0, Final residual = 0, No Iterations 0
diagonal:  Solving for T, Initial residual = 0, Final residual = 0, No Iterations 0
diagonal:  Solving for T, Initial residual = 0, Final residual = 0, No Iterations 0
 T goes from min(T) [0 0 0 0 0 0 0] 7.75907e-21 to max(T) [0 0 0 0 0 0 0] 0.954002

ExecutionTime = 44.22 s  ClockTime = 694 s

Time = 0.1825
Courant Number mean: 0.228327 max: 0.502702
diagonal:  Solving for T, Initial residual = 0, Final residual = 0, No Iterations 0
diagonal:  Solving for T, Initial residual = 0, Final residual = 0, No Iterations 0
diagonal:  Solving for T, Initial residual = 0, Final residual = 0, No Iterations 0
diagonal:  Solving for T, Initial residual = 0, Final residual = 0, No Iterations 0
 T goes from min(T) [0 0 0 0 0 0 0] 7.91728e-21 to max(T) [0 0 0 0 0 0 0] 0.953783

ExecutionTime = 44.71 s  ClockTime = 701 s

Time = 0.185
Courant Number mean: 0.228211 max: 0.502902
diagonal:  Solving for T, Initial residual = 0, Final residual = 0, No Iterations 0
diagonal:  Solving for T, Initial residual = 0, Final residual = 0, No Iterations 0
diagonal:  Solving for T, Initial residual = 0, Final residual = 0, No Iterations 0
diagonal:  Solving for T, Initial residual = 0, Final residual = 0, No Iterations 0
 T goes from min(T) [0 0 0 0 0 0 0] 8.17025e-21 to max(T) [0 0 0 0 0 0 0] 0.953392

ExecutionTime = 45.26 s  ClockTime = 709 s

Time = 0.1875
Courant Number mean: 0.228092 max: 0.503094
diagonal:  Solving for T, Initial residual = 0, Final residual = 0, No Iterations 0
diagonal:  Solving for T, Initial residual = 0, Final residual = 0, No Iterations 0
diagonal:  Solving for T, Initial residual = 0, Final residual = 0, No Iterations 0
diagonal:  Solving for T, Initial residual = 0, Final residual = 0, No Iterations 0
 T goes from min(T) [0 0 0 0 0 0 0] 8.45634e-21 to max(T) [0 0 0 0 0 0 0] 0.953505

ExecutionTime = 45.75 s  ClockTime = 717 s

Time = 0.19
Courant Number mean: 0.227973 max: 0.503284
diagonal:  Solving for T, Initial residual = 0, Final residual = 0, No Iterations 0
diagonal:  Solving for T, Initial residual = 0, Final residual = 0, No Iterations 0
diagonal:  Solving for T, Initial residual = 0, Final residual = 0, No Iterations 0
diagonal:  Solving for T, Initial residual = 0, Final residual = 0, No Iterations 0
 T goes from min(T) [0 0 0 0 0 0 0] 8.1145e-21 to max(T) [0 0 0 0 0 0 0] 0.953572

ExecutionTime = 46.25 s  ClockTime = 724 s

Time = 0.1925
Courant Number mean: 0.227852 max: 0.503538
diagonal:  Solving for T, Initial residual = 0, Final residual = 0, No Iterations 0
diagonal:  Solving for T, Initial residual = 0, Final residual = 0, No Iterations 0
diagonal:  Solving for T, Initial residual = 0, Final residual = 0, No Iterations 0
diagonal:  Solving for T, Initial residual = 0, Final residual = 0, No Iterations 0
 T goes from min(T) [0 0 0 0 0 0 0] 7.86831e-21 to max(T) [0 0 0 0 0 0 0] 0.95356

ExecutionTime = 46.76 s  ClockTime = 732 s

Time = 0.195
Courant Number mean: 0.22773 max: 0.503784
diagonal:  Solving for T, Initial residual = 0, Final residual = 0, No Iterations 0
diagonal:  Solving for T, Initial residual = 0, Final residual = 0, No Iterations 0
diagonal:  Solving for T, Initial residual = 0, Final residual = 0, No Iterations 0
diagonal:  Solving for T, Initial residual = 0, Final residual = 0, No Iterations 0
 T goes from min(T) [0 0 0 0 0 0 0] 7.71679e-21 to max(T) [0 0 0 0 0 0 0] 0.953894

ExecutionTime = 47.28 s  ClockTime = 739 s

Time = 0.1975
Courant Number mean: 0.227607 max: 0.504022
diagonal:  Solving for T, Initial residual = 0, Final residual = 0, No Iterations 0
diagonal:  Solving for T, Initial residual = 0, Final residual = 0, No Iterations 0
diagonal:  Solving for T, Initial residual = 0, Final residual = 0, No Iterations 0
diagonal:  Solving for T, Initial residual = 0, Final residual = 0, No Iterations 0
 T goes from min(T) [0 0 0 0 0 0 0] 7.65929e-21 to max(T) [0 0 0 0 0 0 0] 0.954053

ExecutionTime = 47.77 s  ClockTime = 747 s

Time = 0.2
Courant Number mean: 0.227484 max: 0.504251
diagonal:  Solving for T, Initial residual = 0, Final residual = 0, No Iterations 0
diagonal:  Solving for T, Initial residual = 0, Final residual = 0, No Iterations 0
diagonal:  Solving for T, Initial residual = 0, Final residual = 0, No Iterations 0
diagonal:  Solving for T, Initial residual = 0, Final residual = 0, No Iterations 0
 T goes from min(T) [0 0 0 0 0 0 0] 7.6955e-21 to max(T) [0 0 0 0 0 0 0] 0.95404

ExecutionTime = 48.25 s  ClockTime = 753 s

Time = 0.2025
Courant Number mean: 0.22736 max: 0.504472
diagonal:  Solving for T, Initial residual = 0, Final residual = 0, No Iterations 0
diagonal:  Solving for T, Initial residual = 0, Final residual = 0, No Iterations 0
diagonal:  Solving for T, Initial residual = 0, Final residual = 0, No Iterations 0
diagonal:  Solving for T, Initial residual = 0, Final residual = 0, No Iterations 0
 T goes from min(T) [0 0 0 0 0 0 0] 7.82549e-21 to max(T) [0 0 0 0 0 0 0] 0.954034

ExecutionTime = 48.76 s  ClockTime = 760 s

Time = 0.205
Courant Number mean: 0.227235 max: 0.504684
diagonal:  Solving for T, Initial residual = 0, Final residual = 0, No Iterations 0
diagonal:  Solving for T, Initial residual = 0, Final residual = 0, No Iterations 0
diagonal:  Solving for T, Initial residual = 0, Final residual = 0, No Iterations 0
diagonal:  Solving for T, Initial residual = 0, Final residual = 0, No Iterations 0
 T goes from min(T) [0 0 0 0 0 0 0] 8.04964e-21 to max(T) [0 0 0 0 0 0 0] 0.953798

ExecutionTime = 49.25 s  ClockTime = 767 s

Time = 0.2075
Courant Number mean: 0.227109 max: 0.504888
diagonal:  Solving for T, Initial residual = 0, Final residual = 0, No Iterations 0
diagonal:  Solving for T, Initial residual = 0, Final residual = 0, No Iterations 0
diagonal:  Solving for T, Initial residual = 0, Final residual = 0, No Iterations 0
diagonal:  Solving for T, Initial residual = 0, Final residual = 0, No Iterations 0
 T goes from min(T) [0 0 0 0 0 0 0] 8.36871e-21 to max(T) [0 0 0 0 0 0 0] 0.953637

ExecutionTime = 49.73 s  ClockTime = 773 s

Time = 0.21
Courant Number mean: 0.226982 max: 0.505084
diagonal:  Solving for T, Initial residual = 0, Final residual = 0, No Iterations 0
diagonal:  Solving for T, Initial residual = 0, Final residual = 0, No Iterations 0
diagonal:  Solving for T, Initial residual = 0, Final residual = 0, No Iterations 0
diagonal:  Solving for T, Initial residual = 0, Final residual = 0, No Iterations 0
 T goes from min(T) [0 0 0 0 0 0 0] 8.16511e-21 to max(T) [0 0 0 0 0 0 0] 0.953601

ExecutionTime = 50.22 s  ClockTime = 779 s

Time = 0.2125
Courant Number mean: 0.226854 max: 0.505271
diagonal:  Solving for T, Initial residual = 0, Final residual = 0, No Iterations 0
diagonal:  Solving for T, Initial residual = 0, Final residual = 0, No Iterations 0
diagonal:  Solving for T, Initial residual = 0, Final residual = 0, No Iterations 0
diagonal:  Solving for T, Initial residual = 0, Final residual = 0, No Iterations 0
 T goes from min(T) [0 0 0 0 0 0 0] 7.89302e-21 to max(T) [0 0 0 0 0 0 0] 0.9534

ExecutionTime = 50.71 s  ClockTime = 786 s

Time = 0.215
Courant Number mean: 0.226724 max: 0.505449
diagonal:  Solving for T, Initial residual = 0, Final residual = 0, No Iterations 0
diagonal:  Solving for T, Initial residual = 0, Final residual = 0, No Iterations 0
diagonal:  Solving for T, Initial residual = 0, Final residual = 0, No Iterations 0
diagonal:  Solving for T, Initial residual = 0, Final residual = 0, No Iterations 0
 T goes from min(T) [0 0 0 0 0 0 0] 7.71527e-21 to max(T) [0 0 0 0 0 0 0] 0.953448

ExecutionTime = 51.21 s  ClockTime = 792 s

Time = 0.2175
Courant Number mean: 0.226593 max: 0.50562
diagonal:  Solving for T, Initial residual = 0, Final residual = 0, No Iterations 0
diagonal:  Solving for T, Initial residual = 0, Final residual = 0, No Iterations 0
diagonal:  Solving for T, Initial residual = 0, Final residual = 0, No Iterations 0
diagonal:  Solving for T, Initial residual = 0, Final residual = 0, No Iterations 0
 T goes from min(T) [0 0 0 0 0 0 0] 7.63113e-21 to max(T) [0 0 0 0 0 0 0] 0.953558

ExecutionTime = 51.69 s  ClockTime = 799 s

Time = 0.22
Courant Number mean: 0.226462 max: 0.505782
diagonal:  Solving for T, Initial residual = 0, Final residual = 0, No Iterations 0
diagonal:  Solving for T, Initial residual = 0, Final residual = 0, No Iterations 0
diagonal:  Solving for T, Initial residual = 0, Final residual = 0, No Iterations 0
diagonal:  Solving for T, Initial residual = 0, Final residual = 0, No Iterations 0
 T goes from min(T) [0 0 0 0 0 0 0] 7.64026e-21 to max(T) [0 0 0 0 0 0 0] 0.953306

ExecutionTime = 52.23 s  ClockTime = 806 s

Time = 0.2225
Courant Number mean: 0.22633 max: 0.505997
diagonal:  Solving for T, Initial residual = 0, Final residual = 0, No Iterations 0
diagonal:  Solving for T, Initial residual = 0, Final residual = 0, No Iterations 0
diagonal:  Solving for T, Initial residual = 0, Final residual = 0, No Iterations 0
diagonal:  Solving for T, Initial residual = 0, Final residual = 0, No Iterations 0
 T goes from min(T) [0 0 0 0 0 0 0] 7.74266e-21 to max(T) [0 0 0 0 0 0 0] 0.953588

ExecutionTime = 52.73 s  ClockTime = 812 s

Time = 0.225
Courant Number mean: 0.226199 max: 0.506221
diagonal:  Solving for T, Initial residual = 0, Final residual = 0, No Iterations 0
diagonal:  Solving for T, Initial residual = 0, Final residual = 0, No Iterations 0
diagonal:  Solving for T, Initial residual = 0, Final residual = 0, No Iterations 0
diagonal:  Solving for T, Initial residual = 0, Final residual = 0, No Iterations 0
 T goes from min(T) [0 0 0 0 0 0 0] 7.93868e-21 to max(T) [0 0 0 0 0 0 0] 0.953943

ExecutionTime = 53.2 s  ClockTime = 818 s

Time = 0.2275
Courant Number mean: 0.226066 max: 0.506437
diagonal:  Solving for T, Initial residual = 0, Final residual = 0, No Iterations 0
diagonal:  Solving for T, Initial residual = 0, Final residual = 0, No Iterations 0
diagonal:  Solving for T, Initial residual = 0, Final residual = 0, No Iterations 0
diagonal:  Solving for T, Initial residual = 0, Final residual = 0, No Iterations 0
 T goes from min(T) [0 0 0 0 0 0 0] 8.22907e-21 to max(T) [0 0 0 0 0 0 0] 0.954134

ExecutionTime = 53.7 s  ClockTime = 825 s

Time = 0.23
Courant Number mean: 0.225932 max: 0.506644
diagonal:  Solving for T, Initial residual = 0, Final residual = 0, No Iterations 0
diagonal:  Solving for T, Initial residual = 0, Final residual = 0, No Iterations 0
diagonal:  Solving for T, Initial residual = 0, Final residual = 0, No Iterations 0
diagonal:  Solving for T, Initial residual = 0, Final residual = 0, No Iterations 0
 T goes from min(T) [0 0 0 0 0 0 0] 8.22313e-21 to max(T) [0 0 0 0 0 0 0] 0.954163

ExecutionTime = 54.22 s  ClockTime = 832 s

Time = 0.2325
Courant Number mean: 0.225796 max: 0.506844
diagonal:  Solving for T, Initial residual = 0, Final residual = 0, No Iterations 0
diagonal:  Solving for T, Initial residual = 0, Final residual = 0, No Iterations 0
diagonal:  Solving for T, Initial residual = 0, Final residual = 0, No Iterations 0
diagonal:  Solving for T, Initial residual = 0, Final residual = 0, No Iterations 0
 T goes from min(T) [0 0 0 0 0 0 0] 7.92542e-21 to max(T) [0 0 0 0 0 0 0] 0.954035

ExecutionTime = 54.71 s  ClockTime = 838 s

Time = 0.235
Courant Number mean: 0.22566 max: 0.507034
diagonal:  Solving for T, Initial residual = 0, Final residual = 0, No Iterations 0
diagonal:  Solving for T, Initial residual = 0, Final residual = 0, No Iterations 0
diagonal:  Solving for T, Initial residual = 0, Final residual = 0, No Iterations 0
diagonal:  Solving for T, Initial residual = 0, Final residual = 0, No Iterations 0
 T goes from min(T) [0 0 0 0 0 0 0] 7.72181e-21 to max(T) [0 0 0 0 0 0 0] 0.953754

ExecutionTime = 55.2 s  ClockTime = 844 s

Time = 0.2375
Courant Number mean: 0.225522 max: 0.507217
diagonal:  Solving for T, Initial residual = 0, Final residual = 0, No Iterations 0
diagonal:  Solving for T, Initial residual = 0, Final residual = 0, No Iterations 0
diagonal:  Solving for T, Initial residual = 0, Final residual = 0, No Iterations 0
diagonal:  Solving for T, Initial residual = 0, Final residual = 0, No Iterations 0
 T goes from min(T) [0 0 0 0 0 0 0] 7.6115e-21 to max(T) [0 0 0 0 0 0 0] 0.953333

ExecutionTime = 55.7 s  ClockTime = 851 s

Time = 0.24
Courant Number mean: 0.225383 max: 0.507391
diagonal:  Solving for T, Initial residual = 0, Final residual = 0, No Iterations 0
diagonal:  Solving for T, Initial residual = 0, Final residual = 0, No Iterations 0
diagonal:  Solving for T, Initial residual = 0, Final residual = 0, No Iterations 0
diagonal:  Solving for T, Initial residual = 0, Final residual = 0, No Iterations 0
 T goes from min(T) [0 0 0 0 0 0 0] 7.59408e-21 to max(T) [0 0 0 0 0 0 0] 0.953341

ExecutionTime = 56.19 s  ClockTime = 857 s

Time = 0.2425
Courant Number mean: 0.225245 max: 0.507556
diagonal:  Solving for T, Initial residual = 0, Final residual = 0, No Iterations 0
diagonal:  Solving for T, Initial residual = 0, Final residual = 0, No Iterations 0
diagonal:  Solving for T, Initial residual = 0, Final residual = 0, No Iterations 0
diagonal:  Solving for T, Initial residual = 0, Final residual = 0, No Iterations 0
 T goes from min(T) [0 0 0 0 0 0 0] 7.66949e-21 to max(T) [0 0 0 0 0 0 0] 0.953355

ExecutionTime = 56.68 s  ClockTime = 864 s

Time = 0.245
Courant Number mean: 0.225106 max: 0.507733
diagonal:  Solving for T, Initial residual = 0, Final residual = 0, No Iterations 0
diagonal:  Solving for T, Initial residual = 0, Final residual = 0, No Iterations 0
diagonal:  Solving for T, Initial residual = 0, Final residual = 0, No Iterations 0
diagonal:  Solving for T, Initial residual = 0, Final residual = 0, No Iterations 0
 T goes from min(T) [0 0 0 0 0 0 0] 7.83804e-21 to max(T) [0 0 0 0 0 0 0] 0.953552

ExecutionTime = 57.2 s  ClockTime = 870 s

Time = 0.2475
Courant Number mean: 0.224966 max: 0.507931
diagonal:  Solving for T, Initial residual = 0, Final residual = 0, No Iterations 0
diagonal:  Solving for T, Initial residual = 0, Final residual = 0, No Iterations 0
diagonal:  Solving for T, Initial residual = 0, Final residual = 0, No Iterations 0
diagonal:  Solving for T, Initial residual = 0, Final residual = 0, No Iterations 0
 T goes from min(T) [0 0 0 0 0 0 0] 8.10044e-21 to max(T) [0 0 0 0 0 0 0] 0.953521

ExecutionTime = 57.7 s  ClockTime = 877 s

Time = 0.25
Courant Number mean: 0.224825 max: 0.508121
diagonal:  Solving for T, Initial residual = 0, Final residual = 0, No Iterations 0
diagonal:  Solving for T, Initial residual = 0, Final residual = 0, No Iterations 0
diagonal:  Solving for T, Initial residual = 0, Final residual = 0, No Iterations 0
diagonal:  Solving for T, Initial residual = 0, Final residual = 0, No Iterations 0
 T goes from min(T) [0 0 0 0 0 0 0] 8.28934e-21 to max(T) [0 0 0 0 0 0 0] 0.953376

ExecutionTime = 58.22 s  ClockTime = 883 s

Time = 0.2525
Courant Number mean: 0.224684 max: 0.508303
diagonal:  Solving for T, Initial residual = 0, Final residual = 0, No Iterations 0
diagonal:  Solving for T, Initial residual = 0, Final residual = 0, No Iterations 0
diagonal:  Solving for T, Initial residual = 0, Final residual = 0, No Iterations 0
diagonal:  Solving for T, Initial residual = 0, Final residual = 0, No Iterations 0
 T goes from min(T) [0 0 0 0 0 0 0] 7.9663e-21 to max(T) [0 0 0 0 0 0 0] 0.953354

ExecutionTime = 58.77 s  ClockTime = 891 s

Time = 0.255
Courant Number mean: 0.224541 max: 0.508476
diagonal:  Solving for T, Initial residual = 0, Final residual = 0, No Iterations 0
diagonal:  Solving for T, Initial residual = 0, Final residual = 0, No Iterations 0
diagonal:  Solving for T, Initial residual = 0, Final residual = 0, No Iterations 0
diagonal:  Solving for T, Initial residual = 0, Final residual = 0, No Iterations 0
 T goes from min(T) [0 0 0 0 0 0 0] 7.73721e-21 to max(T) [0 0 0 0 0 0 0] 0.953786

ExecutionTime = 59.26 s  ClockTime = 897 s

Time = 0.2575
Courant Number mean: 0.224397 max: 0.50864
diagonal:  Solving for T, Initial residual = 0, Final residual = 0, No Iterations 0
diagonal:  Solving for T, Initial residual = 0, Final residual = 0, No Iterations 0
diagonal:  Solving for T, Initial residual = 0, Final residual = 0, No Iterations 0
diagonal:  Solving for T, Initial residual = 0, Final residual = 0, No Iterations 0
 T goes from min(T) [0 0 0 0 0 0 0] 7.60119e-21 to max(T) [0 0 0 0 0 0 0] 0.954062

ExecutionTime = 59.75 s  ClockTime = 903 s

Time = 0.26
Courant Number mean: 0.224251 max: 0.508796
diagonal:  Solving for T, Initial residual = 0, Final residual = 0, No Iterations 0
diagonal:  Solving for T, Initial residual = 0, Final residual = 0, No Iterations 0
diagonal:  Solving for T, Initial residual = 0, Final residual = 0, No Iterations 0
diagonal:  Solving for T, Initial residual = 0, Final residual = 0, No Iterations 0
 T goes from min(T) [0 0 0 0 0 0 0] 7.55774e-21 to max(T) [0 0 0 0 0 0 0] 0.954186

ExecutionTime = 60.24 s  ClockTime = 910 s

Time = 0.2625
Courant Number mean: 0.224106 max: 0.508943
diagonal:  Solving for T, Initial residual = 0, Final residual = 0, No Iterations 0
diagonal:  Solving for T, Initial residual = 0, Final residual = 0, No Iterations 0
diagonal:  Solving for T, Initial residual = 0, Final residual = 0, No Iterations 0
diagonal:  Solving for T, Initial residual = 0, Final residual = 0, No Iterations 0
 T goes from min(T) [0 0 0 0 0 0 0] 7.60674e-21 to max(T) [0 0 0 0 0 0 0] 0.954162

ExecutionTime = 60.75 s  ClockTime = 916 s

Time = 0.265
Courant Number mean: 0.223961 max: 0.509097
diagonal:  Solving for T, Initial residual = 0, Final residual = 0, No Iterations 0
diagonal:  Solving for T, Initial residual = 0, Final residual = 0, No Iterations 0
diagonal:  Solving for T, Initial residual = 0, Final residual = 0, No Iterations 0
diagonal:  Solving for T, Initial residual = 0, Final residual = 0, No Iterations 0
 T goes from min(T) [0 0 0 0 0 0 0] 7.74846e-21 to max(T) [0 0 0 0 0 0 0] 0.953994

ExecutionTime = 61.24 s  ClockTime = 923 s

Time = 0.2675
Courant Number mean: 0.223815 max: 0.509268
diagonal:  Solving for T, Initial residual = 0, Final residual = 0, No Iterations 0
diagonal:  Solving for T, Initial residual = 0, Final residual = 0, No Iterations 0
diagonal:  Solving for T, Initial residual = 0, Final residual = 0, No Iterations 0
diagonal:  Solving for T, Initial residual = 0, Final residual = 0, No Iterations 0
 T goes from min(T) [0 0 0 0 0 0 0] 7.98354e-21 to max(T) [0 0 0 0 0 0 0] 0.953685

ExecutionTime = 61.74 s  ClockTime = 929 s

Time = 0.27
Courant Number mean: 0.223668 max: 0.50947
diagonal:  Solving for T, Initial residual = 0, Final residual = 0, No Iterations 0
diagonal:  Solving for T, Initial residual = 0, Final residual = 0, No Iterations 0
diagonal:  Solving for T, Initial residual = 0, Final residual = 0, No Iterations 0
diagonal:  Solving for T, Initial residual = 0, Final residual = 0, No Iterations 0
 T goes from min(T) [0 0 0 0 0 0 0] 8.31302e-21 to max(T) [0 0 0 0 0 0 0] 0.953611

ExecutionTime = 62.24 s  ClockTime = 936 s

Time = 0.2725
Courant Number mean: 0.22352 max: 0.509664
diagonal:  Solving for T, Initial residual = 0, Final residual = 0, No Iterations 0
diagonal:  Solving for T, Initial residual = 0, Final residual = 0, No Iterations 0
diagonal:  Solving for T, Initial residual = 0, Final residual = 0, No Iterations 0
diagonal:  Solving for T, Initial residual = 0, Final residual = 0, No Iterations 0
 T goes from min(T) [0 0 0 0 0 0 0] 8.01629e-21 to max(T) [0 0 0 0 0 0 0] 0.953583

ExecutionTime = 62.8 s  ClockTime = 943 s

Time = 0.275
Courant Number mean: 0.223372 max: 0.509849
diagonal:  Solving for T, Initial residual = 0, Final residual = 0, No Iterations 0
diagonal:  Solving for T, Initial residual = 0, Final residual = 0, No Iterations 0
diagonal:  Solving for T, Initial residual = 0, Final residual = 0, No Iterations 0
diagonal:  Solving for T, Initial residual = 0, Final residual = 0, No Iterations 0
 T goes from min(T) [0 0 0 0 0 0 0] 7.7621e-21 to max(T) [0 0 0 0 0 0 0] 0.953517

ExecutionTime = 63.31 s  ClockTime = 950 s

Time = 0.2775
Courant Number mean: 0.223222 max: 0.510025
diagonal:  Solving for T, Initial residual = 0, Final residual = 0, No Iterations 0
diagonal:  Solving for T, Initial residual = 0, Final residual = 0, No Iterations 0
diagonal:  Solving for T, Initial residual = 0, Final residual = 0, No Iterations 0
diagonal:  Solving for T, Initial residual = 0, Final residual = 0, No Iterations 0
 T goes from min(T) [0 0 0 0 0 0 0] 7.60081e-21 to max(T) [0 0 0 0 0 0 0] 0.953596

ExecutionTime = 63.8 s  ClockTime = 956 s

Time = 0.28
Courant Number mean: 0.223071 max: 0.510193
diagonal:  Solving for T, Initial residual = 0, Final residual = 0, No Iterations 0
diagonal:  Solving for T, Initial residual = 0, Final residual = 0, No Iterations 0
diagonal:  Solving for T, Initial residual = 0, Final residual = 0, No Iterations 0
diagonal:  Solving for T, Initial residual = 0, Final residual = 0, No Iterations 0
 T goes from min(T) [0 0 0 0 0 0 0] 7.53184e-21 to max(T) [0 0 0 0 0 0 0] 0.953431

ExecutionTime = 64.3 s  ClockTime = 963 s

Time = 0.2825
Courant Number mean: 0.22292 max: 0.510353
diagonal:  Solving for T, Initial residual = 0, Final residual = 0, No Iterations 0
diagonal:  Solving for T, Initial residual = 0, Final residual = 0, No Iterations 0
diagonal:  Solving for T, Initial residual = 0, Final residual = 0, No Iterations 0
diagonal:  Solving for T, Initial residual = 0, Final residual = 0, No Iterations 0
 T goes from min(T) [0 0 0 0 0 0 0] 7.55501e-21 to max(T) [0 0 0 0 0 0 0] 0.952952

ExecutionTime = 64.79 s  ClockTime = 969 s

Time = 0.285
Courant Number mean: 0.222768 max: 0.510504
diagonal:  Solving for T, Initial residual = 0, Final residual = 0, No Iterations 0
diagonal:  Solving for T, Initial residual = 0, Final residual = 0, No Iterations 0
diagonal:  Solving for T, Initial residual = 0, Final residual = 0, No Iterations 0
diagonal:  Solving for T, Initial residual = 0, Final residual = 0, No Iterations 0
 T goes from min(T) [0 0 0 0 0 0 0] 7.67052e-21 to max(T) [0 0 0 0 0 0 0] 0.95304

ExecutionTime = 65.28 s  ClockTime = 975 s

Time = 0.2875
Courant Number mean: 0.222616 max: 0.510646
diagonal:  Solving for T, Initial residual = 0, Final residual = 0, No Iterations 0
diagonal:  Solving for T, Initial residual = 0, Final residual = 0, No Iterations 0
diagonal:  Solving for T, Initial residual = 0, Final residual = 0, No Iterations 0
diagonal:  Solving for T, Initial residual = 0, Final residual = 0, No Iterations 0
 T goes from min(T) [0 0 0 0 0 0 0] 7.87897e-21 to max(T) [0 0 0 0 0 0 0] 0.953485

ExecutionTime = 65.77 s  ClockTime = 982 s

Time = 0.29
Courant Number mean: 0.222464 max: 0.51078
diagonal:  Solving for T, Initial residual = 0, Final residual = 0, No Iterations 0
diagonal:  Solving for T, Initial residual = 0, Final residual = 0, No Iterations 0
diagonal:  Solving for T, Initial residual = 0, Final residual = 0, No Iterations 0
diagonal:  Solving for T, Initial residual = 0, Final residual = 0, No Iterations 0
 T goes from min(T) [0 0 0 0 0 0 0] 8.18134e-21 to max(T) [0 0 0 0 0 0 0] 0.953786

ExecutionTime = 66.34 s  ClockTime = 989 s

Time = 0.2925
Courant Number mean: 0.222311 max: 0.510906
diagonal:  Solving for T, Initial residual = 0, Final residual = 0, No Iterations 0
diagonal:  Solving for T, Initial residual = 0, Final residual = 0, No Iterations 0
diagonal:  Solving for T, Initial residual = 0, Final residual = 0, No Iterations 0
diagonal:  Solving for T, Initial residual = 0, Final residual = 0, No Iterations 0
 T goes from min(T) [0 0 0 0 0 0 0] 8.07593e-21 to max(T) [0 0 0 0 0 0 0] 0.953946

ExecutionTime = 66.85 s  ClockTime = 996 s

Time = 0.295
Courant Number mean: 0.222157 max: 0.511023
diagonal:  Solving for T, Initial residual = 0, Final residual = 0, No Iterations 0
diagonal:  Solving for T, Initial residual = 0, Final residual = 0, No Iterations 0
diagonal:  Solving for T, Initial residual = 0, Final residual = 0, No Iterations 0
diagonal:  Solving for T, Initial residual = 0, Final residual = 0, No Iterations 0
 T goes from min(T) [0 0 0 0 0 0 0] 7.79702e-21 to max(T) [0 0 0 0 0 0 0] 0.953968

ExecutionTime = 67.38 s  ClockTime = 1003 s

Time = 0.2975
Courant Number mean: 0.222002 max: 0.511159
diagonal:  Solving for T, Initial residual = 0, Final residual = 0, No Iterations 0
diagonal:  Solving for T, Initial residual = 0, Final residual = 0, No Iterations 0
diagonal:  Solving for T, Initial residual = 0, Final residual = 0, No Iterations 0
diagonal:  Solving for T, Initial residual = 0, Final residual = 0, No Iterations 0
 T goes from min(T) [0 0 0 0 0 0 0] 7.61091e-21 to max(T) [0 0 0 0 0 0 0] 0.953856

ExecutionTime = 67.88 s  ClockTime = 1009 s

Time = 0.3
Courant Number mean: 0.221846 max: 0.511338
diagonal:  Solving for T, Initial residual = 0, Final residual = 0, No Iterations 0
diagonal:  Solving for T, Initial residual = 0, Final residual = 0, No Iterations 0
diagonal:  Solving for T, Initial residual = 0, Final residual = 0, No Iterations 0
diagonal:  Solving for T, Initial residual = 0, Final residual = 0, No Iterations 0
 T goes from min(T) [0 0 0 0 0 0 0] 7.51695e-21 to max(T) [0 0 0 0 0 0 0] 0.95395

ExecutionTime = 68.37 s  ClockTime = 1016 s

Time = 0.3025
Courant Number mean: 0.221689 max: 0.511509
diagonal:  Solving for T, Initial residual = 0, Final residual = 0, No Iterations 0
diagonal:  Solving for T, Initial residual = 0, Final residual = 0, No Iterations 0
diagonal:  Solving for T, Initial residual = 0, Final residual = 0, No Iterations 0
diagonal:  Solving for T, Initial residual = 0, Final residual = 0, No Iterations 0
 T goes from min(T) [0 0 0 0 0 0 0] 7.51486e-21 to max(T) [0 0 0 0 0 0 0] 0.954136

ExecutionTime = 68.87 s  ClockTime = 1022 s

Time = 0.305
Courant Number mean: 0.221531 max: 0.511672
diagonal:  Solving for T, Initial residual = 0, Final residual = 0, No Iterations 0
diagonal:  Solving for T, Initial residual = 0, Final residual = 0, No Iterations 0
diagonal:  Solving for T, Initial residual = 0, Final residual = 0, No Iterations 0
diagonal:  Solving for T, Initial residual = 0, Final residual = 0, No Iterations 0
 T goes from min(T) [0 0 0 0 0 0 0] 7.6048e-21 to max(T) [0 0 0 0 0 0 0] 0.954186

ExecutionTime = 69.39 s  ClockTime = 1029 s

Time = 0.3075
Courant Number mean: 0.221374 max: 0.511826
diagonal:  Solving for T, Initial residual = 0, Final residual = 0, No Iterations 0
diagonal:  Solving for T, Initial residual = 0, Final residual = 0, No Iterations 0
diagonal:  Solving for T, Initial residual = 0, Final residual = 0, No Iterations 0
diagonal:  Solving for T, Initial residual = 0, Final residual = 0, No Iterations 0
 T goes from min(T) [0 0 0 0 0 0 0] 7.7873e-21 to max(T) [0 0 0 0 0 0 0] 0.954103

ExecutionTime = 69.88 s  ClockTime = 1036 s

Time = 0.31
Courant Number mean: 0.221216 max: 0.511971
diagonal:  Solving for T, Initial residual = 0, Final residual = 0, No Iterations 0
diagonal:  Solving for T, Initial residual = 0, Final residual = 0, No Iterations 0
diagonal:  Solving for T, Initial residual = 0, Final residual = 0, No Iterations 0
diagonal:  Solving for T, Initial residual = 0, Final residual = 0, No Iterations 0
 T goes from min(T) [0 0 0 0 0 0 0] 8.06328e-21 to max(T) [0 0 0 0 0 0 0] 0.953891

ExecutionTime = 70.37 s  ClockTime = 1042 s

Time = 0.3125
Courant Number mean: 0.221057 max: 0.512108
diagonal:  Solving for T, Initial residual = 0, Final residual = 0, No Iterations 0
diagonal:  Solving for T, Initial residual = 0, Final residual = 0, No Iterations 0
diagonal:  Solving for T, Initial residual = 0, Final residual = 0, No Iterations 0
diagonal:  Solving for T, Initial residual = 0, Final residual = 0, No Iterations 0
 T goes from min(T) [0 0 0 0 0 0 0] 8.14565e-21 to max(T) [0 0 0 0 0 0 0] 0.953565

ExecutionTime = 70.89 s  ClockTime = 1049 s

Time = 0.315
Courant Number mean: 0.220898 max: 0.512237
diagonal:  Solving for T, Initial residual = 0, Final residual = 0, No Iterations 0
diagonal:  Solving for T, Initial residual = 0, Final residual = 0, No Iterations 0
diagonal:  Solving for T, Initial residual = 0, Final residual = 0, No Iterations 0
diagonal:  Solving for T, Initial residual = 0, Final residual = 0, No Iterations 0
 T goes from min(T) [0 0 0 0 0 0 0] 7.84241e-21 to max(T) [0 0 0 0 0 0 0] 0.953607

ExecutionTime = 71.41 s  ClockTime = 1055 s

Time = 0.3175
Courant Number mean: 0.220738 max: 0.512357
diagonal:  Solving for T, Initial residual = 0, Final residual = 0, No Iterations 0
diagonal:  Solving for T, Initial residual = 0, Final residual = 0, No Iterations 0
diagonal:  Solving for T, Initial residual = 0, Final residual = 0, No Iterations 0
diagonal:  Solving for T, Initial residual = 0, Final residual = 0, No Iterations 0
 T goes from min(T) [0 0 0 0 0 0 0] 7.63194e-21 to max(T) [0 0 0 0 0 0 0] 0.953553

ExecutionTime = 71.9 s  ClockTime = 1062 s

Time = 0.32
Courant Number mean: 0.220577 max: 0.512468
diagonal:  Solving for T, Initial residual = 0, Final residual = 0, No Iterations 0
diagonal:  Solving for T, Initial residual = 0, Final residual = 0, No Iterations 0
diagonal:  Solving for T, Initial residual = 0, Final residual = 0, No Iterations 0
diagonal:  Solving for T, Initial residual = 0, Final residual = 0, No Iterations 0
 T goes from min(T) [0 0 0 0 0 0 0] 7.5135e-21 to max(T) [0 0 0 0 0 0 0] 0.953373

ExecutionTime = 72.39 s  ClockTime = 1068 s

Time = 0.3225
Courant Number mean: 0.220415 max: 0.512571
diagonal:  Solving for T, Initial residual = 0, Final residual = 0, No Iterations 0
diagonal:  Solving for T, Initial residual = 0, Final residual = 0, No Iterations 0
diagonal:  Solving for T, Initial residual = 0, Final residual = 0, No Iterations 0
diagonal:  Solving for T, Initial residual = 0, Final residual = 0, No Iterations 0
 T goes from min(T) [0 0 0 0 0 0 0] 7.48675e-21 to max(T) [0 0 0 0 0 0 0] 0.953067

ExecutionTime = 72.9 s  ClockTime = 1075 s

Time = 0.325
Courant Number mean: 0.220253 max: 0.512675
diagonal:  Solving for T, Initial residual = 0, Final residual = 0, No Iterations 0
diagonal:  Solving for T, Initial residual = 0, Final residual = 0, No Iterations 0
diagonal:  Solving for T, Initial residual = 0, Final residual = 0, No Iterations 0
diagonal:  Solving for T, Initial residual = 0, Final residual = 0, No Iterations 0
 T goes from min(T) [0 0 0 0 0 0 0] 7.55175e-21 to max(T) [0 0 0 0 0 0 0] 0.953257

ExecutionTime = 73.39 s  ClockTime = 1081 s

Time = 0.3275
Courant Number mean: 0.220089 max: 0.512812
diagonal:  Solving for T, Initial residual = 0, Final residual = 0, No Iterations 0
diagonal:  Solving for T, Initial residual = 0, Final residual = 0, No Iterations 0
diagonal:  Solving for T, Initial residual = 0, Final residual = 0, No Iterations 0
diagonal:  Solving for T, Initial residual = 0, Final residual = 0, No Iterations 0
 T goes from min(T) [0 0 0 0 0 0 0] 7.70899e-21 to max(T) [0 0 0 0 0 0 0] 0.953776

ExecutionTime = 73.91 s  ClockTime = 1088 s

Time = 0.33
Courant Number mean: 0.219926 max: 0.51294
diagonal:  Solving for T, Initial residual = 0, Final residual = 0, No Iterations 0
diagonal:  Solving for T, Initial residual = 0, Final residual = 0, No Iterations 0
diagonal:  Solving for T, Initial residual = 0, Final residual = 0, No Iterations 0
diagonal:  Solving for T, Initial residual = 0, Final residual = 0, No Iterations 0
 T goes from min(T) [0 0 0 0 0 0 0] 7.95934e-21 to max(T) [0 0 0 0 0 0 0] 0.953921

ExecutionTime = 74.41 s  ClockTime = 1095 s

Time = 0.3325
Courant Number mean: 0.219763 max: 0.51306
diagonal:  Solving for T, Initial residual = 0, Final residual = 0, No Iterations 0
diagonal:  Solving for T, Initial residual = 0, Final residual = 0, No Iterations 0
diagonal:  Solving for T, Initial residual = 0, Final residual = 0, No Iterations 0
diagonal:  Solving for T, Initial residual = 0, Final residual = 0, No Iterations 0
 T goes from min(T) [0 0 0 0 0 0 0] 8.22579e-21 to max(T) [0 0 0 0 0 0 0] 0.953687

ExecutionTime = 74.92 s  ClockTime = 1101 s

Time = 0.335
Courant Number mean: 0.219599 max: 0.513196
diagonal:  Solving for T, Initial residual = 0, Final residual = 0, No Iterations 0
diagonal:  Solving for T, Initial residual = 0, Final residual = 0, No Iterations 0
diagonal:  Solving for T, Initial residual = 0, Final residual = 0, No Iterations 0
diagonal:  Solving for T, Initial residual = 0, Final residual = 0, No Iterations 0
 T goes from min(T) [0 0 0 0 0 0 0] 7.89861e-21 to max(T) [0 0 0 0 0 0 0] 0.953074

ExecutionTime = 75.53 s  ClockTime = 1109 s

Time = 0.3375
Courant Number mean: 0.219434 max: 0.513327
diagonal:  Solving for T, Initial residual = 0, Final residual = 0, No Iterations 0
diagonal:  Solving for T, Initial residual = 0, Final residual = 0, No Iterations 0
diagonal:  Solving for T, Initial residual = 0, Final residual = 0, No Iterations 0
diagonal:  Solving for T, Initial residual = 0, Final residual = 0, No Iterations 0
 T goes from min(T) [0 0 0 0 0 0 0] 7.66425e-21 to max(T) [0 0 0 0 0 0 0] 0.953062

ExecutionTime = 76.06 s  ClockTime = 1116 s

Time = 0.34
Courant Number mean: 0.219269 max: 0.51345
diagonal:  Solving for T, Initial residual = 0, Final residual = 0, No Iterations 0
diagonal:  Solving for T, Initial residual = 0, Final residual = 0, No Iterations 0
diagonal:  Solving for T, Initial residual = 0, Final residual = 0, No Iterations 0
diagonal:  Solving for T, Initial residual = 0, Final residual = 0, No Iterations 0
 T goes from min(T) [0 0 0 0 0 0 0] 7.52187e-21 to max(T) [0 0 0 0 0 0 0] 0.953201

ExecutionTime = 76.59 s  ClockTime = 1123 s

Time = 0.3425
Courant Number mean: 0.219102 max: 0.513564
diagonal:  Solving for T, Initial residual = 0, Final residual = 0, No Iterations 0
diagonal:  Solving for T, Initial residual = 0, Final residual = 0, No Iterations 0
diagonal:  Solving for T, Initial residual = 0, Final residual = 0, No Iterations 0
diagonal:  Solving for T, Initial residual = 0, Final residual = 0, No Iterations 0
 T goes from min(T) [0 0 0 0 0 0 0] 7.47105e-21 to max(T) [0 0 0 0 0 0 0] 0.953216

ExecutionTime = 77.1 s  ClockTime = 1130 s

Time = 0.345
Courant Number mean: 0.218935 max: 0.51367
diagonal:  Solving for T, Initial residual = 0, Final residual = 0, No Iterations 0
diagonal:  Solving for T, Initial residual = 0, Final residual = 0, No Iterations 0
diagonal:  Solving for T, Initial residual = 0, Final residual = 0, No Iterations 0
diagonal:  Solving for T, Initial residual = 0, Final residual = 0, No Iterations 0
 T goes from min(T) [0 0 0 0 0 0 0] 7.51179e-21 to max(T) [0 0 0 0 0 0 0] 0.95325

ExecutionTime = 77.64 s  ClockTime = 1137 s

Time = 0.3475
Courant Number mean: 0.218767 max: 0.513767
diagonal:  Solving for T, Initial residual = 0, Final residual = 0, No Iterations 0
diagonal:  Solving for T, Initial residual = 0, Final residual = 0, No Iterations 0
diagonal:  Solving for T, Initial residual = 0, Final residual = 0, No Iterations 0
diagonal:  Solving for T, Initial residual = 0, Final residual = 0, No Iterations 0
 T goes from min(T) [0 0 0 0 0 0 0] 7.6445e-21 to max(T) [0 0 0 0 0 0 0] 0.953575

ExecutionTime = 78.17 s  ClockTime = 1144 s

Time = 0.35
Courant Number mean: 0.218599 max: 0.513903
diagonal:  Solving for T, Initial residual = 0, Final residual = 0, No Iterations 0
diagonal:  Solving for T, Initial residual = 0, Final residual = 0, No Iterations 0
diagonal:  Solving for T, Initial residual = 0, Final residual = 0, No Iterations 0
diagonal:  Solving for T, Initial residual = 0, Final residual = 0, No Iterations 0
 T goes from min(T) [0 0 0 0 0 0 0] 7.86998e-21 to max(T) [0 0 0 0 0 0 0] 0.953747

ExecutionTime = 78.67 s  ClockTime = 1150 s

Time = 0.3525
Courant Number mean: 0.218431 max: 0.514034
diagonal:  Solving for T, Initial residual = 0, Final residual = 0, No Iterations 0
diagonal:  Solving for T, Initial residual = 0, Final residual = 0, No Iterations 0
diagonal:  Solving for T, Initial residual = 0, Final residual = 0, No Iterations 0
diagonal:  Solving for T, Initial residual = 0, Final residual = 0, No Iterations 0
 T goes from min(T) [0 0 0 0 0 0 0] 8.18949e-21 to max(T) [0 0 0 0 0 0 0] 0.953849

ExecutionTime = 79.18 s  ClockTime = 1157 s

Time = 0.355
Courant Number mean: 0.218262 max: 0.514157
diagonal:  Solving for T, Initial residual = 0, Final residual = 0, No Iterations 0
diagonal:  Solving for T, Initial residual = 0, Final residual = 0, No Iterations 0
diagonal:  Solving for T, Initial residual = 0, Final residual = 0, No Iterations 0
diagonal:  Solving for T, Initial residual = 0, Final residual = 0, No Iterations 0
 T goes from min(T) [0 0 0 0 0 0 0] 7.96593e-21 to max(T) [0 0 0 0 0 0 0] 0.953831

ExecutionTime = 79.69 s  ClockTime = 1163 s

Time = 0.3575
Courant Number mean: 0.218093 max: 0.514272
diagonal:  Solving for T, Initial residual = 0, Final residual = 0, No Iterations 0
diagonal:  Solving for T, Initial residual = 0, Final residual = 0, No Iterations 0
diagonal:  Solving for T, Initial residual = 0, Final residual = 0, No Iterations 0
diagonal:  Solving for T, Initial residual = 0, Final residual = 0, No Iterations 0
 T goes from min(T) [0 0 0 0 0 0 0] 7.70816e-21 to max(T) [0 0 0 0 0 0 0] 0.953696

ExecutionTime = 80.2 s  ClockTime = 1170 s

Time = 0.36
Courant Number mean: 0.217923 max: 0.514378
diagonal:  Solving for T, Initial residual = 0, Final residual = 0, No Iterations 0
diagonal:  Solving for T, Initial residual = 0, Final residual = 0, No Iterations 0
diagonal:  Solving for T, Initial residual = 0, Final residual = 0, No Iterations 0
diagonal:  Solving for T, Initial residual = 0, Final residual = 0, No Iterations 0
 T goes from min(T) [0 0 0 0 0 0 0] 7.54239e-21 to max(T) [0 0 0 0 0 0 0] 0.953846

ExecutionTime = 80.7 s  ClockTime = 1176 s

Time = 0.3625
Courant Number mean: 0.217753 max: 0.514475
diagonal:  Solving for T, Initial residual = 0, Final residual = 0, No Iterations 0
diagonal:  Solving for T, Initial residual = 0, Final residual = 0, No Iterations 0
diagonal:  Solving for T, Initial residual = 0, Final residual = 0, No Iterations 0
diagonal:  Solving for T, Initial residual = 0, Final residual = 0, No Iterations 0
 T goes from min(T) [0 0 0 0 0 0 0] 7.46811e-21 to max(T) [0 0 0 0 0 0 0] 0.954048

ExecutionTime = 81.19 s  ClockTime = 1183 s

Time = 0.365
Courant Number mean: 0.217582 max: 0.514564
diagonal:  Solving for T, Initial residual = 0, Final residual = 0, No Iterations 0
diagonal:  Solving for T, Initial residual = 0, Final residual = 0, No Iterations 0
diagonal:  Solving for T, Initial residual = 0, Final residual = 0, No Iterations 0
diagonal:  Solving for T, Initial residual = 0, Final residual = 0, No Iterations 0
 T goes from min(T) [0 0 0 0 0 0 0] 7.48525e-21 to max(T) [0 0 0 0 0 0 0] 0.954129

ExecutionTime = 81.68 s  ClockTime = 1189 s

Time = 0.3675
Courant Number mean: 0.21741 max: 0.514644
diagonal:  Solving for T, Initial residual = 0, Final residual = 0, No Iterations 0
diagonal:  Solving for T, Initial residual = 0, Final residual = 0, No Iterations 0
diagonal:  Solving for T, Initial residual = 0, Final residual = 0, No Iterations 0
diagonal:  Solving for T, Initial residual = 0, Final residual = 0, No Iterations 0
 T goes from min(T) [0 0 0 0 0 0 0] 7.59414e-21 to max(T) [0 0 0 0 0 0 0] 0.954094

ExecutionTime = 82.17 s  ClockTime = 1194 s

Time = 0.37
Courant Number mean: 0.217237 max: 0.514716
diagonal:  Solving for T, Initial residual = 0, Final residual = 0, No Iterations 0
diagonal:  Solving for T, Initial residual = 0, Final residual = 0, No Iterations 0
diagonal:  Solving for T, Initial residual = 0, Final residual = 0, No Iterations 0
diagonal:  Solving for T, Initial residual = 0, Final residual = 0, No Iterations 0
 T goes from min(T) [0 0 0 0 0 0 0] 7.79553e-21 to max(T) [0 0 0 0 0 0 0] 0.953945

ExecutionTime = 82.67 s  ClockTime = 1200 s

Time = 0.3725
Courant Number mean: 0.217064 max: 0.514779
diagonal:  Solving for T, Initial residual = 0, Final residual = 0, No Iterations 0
diagonal:  Solving for T, Initial residual = 0, Final residual = 0, No Iterations 0
diagonal:  Solving for T, Initial residual = 0, Final residual = 0, No Iterations 0
diagonal:  Solving for T, Initial residual = 0, Final residual = 0, No Iterations 0
 T goes from min(T) [0 0 0 0 0 0 0] 8.09059e-21 to max(T) [0 0 0 0 0 0 0] 0.953926

ExecutionTime = 83.16 s  ClockTime = 1206 s

Time = 0.375
Courant Number mean: 0.216891 max: 0.514885
diagonal:  Solving for T, Initial residual = 0, Final residual = 0, No Iterations 0
diagonal:  Solving for T, Initial residual = 0, Final residual = 0, No Iterations 0
diagonal:  Solving for T, Initial residual = 0, Final residual = 0, No Iterations 0
diagonal:  Solving for T, Initial residual = 0, Final residual = 0, No Iterations 0
 T goes from min(T) [0 0 0 0 0 0 0] 8.04462e-21 to max(T) [0 0 0 0 0 0 0] 0.954125

ExecutionTime = 83.66 s  ClockTime = 1212 s

Time = 0.3775
Courant Number mean: 0.216718 max: 0.515011
diagonal:  Solving for T, Initial residual = 0, Final residual = 0, No Iterations 0
diagonal:  Solving for T, Initial residual = 0, Final residual = 0, No Iterations 0
diagonal:  Solving for T, Initial residual = 0, Final residual = 0, No Iterations 0
diagonal:  Solving for T, Initial residual = 0, Final residual = 0, No Iterations 0
 T goes from min(T) [0 0 0 0 0 0 0] 7.76393e-21 to max(T) [0 0 0 0 0 0 0] 0.954206

[...]
 T goes from min(T) [0 0 0 0 0 0 0] -0.102905 to max(T) [0 0 0 0 0 0 0] 0.833468

ExecutionTime = 1213.08 s  ClockTime = 5341 s

Time = 5.9075
Courant Number mean: 0.207895 max: 0.468678
diagonal:  Solving for T, Initial residual = 0, Final residual = 0, No Iterations 0
diagonal:  Solving for T, Initial residual = 0, Final residual = 0, No Iterations 0
diagonal:  Solving for T, Initial residual = 0, Final residual = 0, No Iterations 0
diagonal:  Solving for T, Initial residual = 0, Final residual = 0, No Iterations 0
 T goes from min(T) [0 0 0 0 0 0 0] -0.103474 to max(T) [0 0 0 0 0 0 0] 0.833526

ExecutionTime = 1213.58 s  ClockTime = 5342 s

Time = 5.91
Courant Number mean: 0.207965 max: 0.468188
diagonal:  Solving for T, Initial residual = 0, Final residual = 0, No Iterations 0
diagonal:  Solving for T, Initial residual = 0, Final residual = 0, No Iterations 0
diagonal:  Solving for T, Initial residual = 0, Final residual = 0, No Iterations 0
diagonal:  Solving for T, Initial residual = 0, Final residual = 0, No Iterations 0
 T goes from min(T) [0 0 0 0 0 0 0] -0.103728 to max(T) [0 0 0 0 0 0 0] 0.833541

ExecutionTime = 1214.07 s  ClockTime = 5343 s

Time = 5.9125
Courant Number mean: 0.208033 max: 0.46773
diagonal:  Solving for T, Initial residual = 0, Final residual = 0, No Iterations 0
diagonal:  Solving for T, Initial residual = 0, Final residual = 0, No Iterations 0
diagonal:  Solving for T, Initial residual = 0, Final residual = 0, No Iterations 0
diagonal:  Solving for T, Initial residual = 0, Final residual = 0, No Iterations 0
 T goes from min(T) [0 0 0 0 0 0 0] -0.10389 to max(T) [0 0 0 0 0 0 0] 0.833517

ExecutionTime = 1214.57 s  ClockTime = 5343 s

Time = 5.915
Courant Number mean: 0.208101 max: 0.467266
diagonal:  Solving for T, Initial residual = 0, Final residual = 0, No Iterations 0
diagonal:  Solving for T, Initial residual = 0, Final residual = 0, No Iterations 0
diagonal:  Solving for T, Initial residual = 0, Final residual = 0, No Iterations 0
diagonal:  Solving for T, Initial residual = 0, Final residual = 0, No Iterations 0
 T goes from min(T) [0 0 0 0 0 0 0] -0.103775 to max(T) [0 0 0 0 0 0 0] 0.833453

ExecutionTime = 1215.11 s  ClockTime = 5344 s

Time = 5.9175
Courant Number mean: 0.208169 max: 0.466795
diagonal:  Solving for T, Initial residual = 0, Final residual = 0, No Iterations 0
diagonal:  Solving for T, Initial residual = 0, Final residual = 0, No Iterations 0
diagonal:  Solving for T, Initial residual = 0, Final residual = 0, No Iterations 0
diagonal:  Solving for T, Initial residual = 0, Final residual = 0, No Iterations 0
 T goes from min(T) [0 0 0 0 0 0 0] -0.103553 to max(T) [0 0 0 0 0 0 0] 0.833351

ExecutionTime = 1215.64 s  ClockTime = 5345 s

Time = 5.92
Courant Number mean: 0.208237 max: 0.466317
diagonal:  Solving for T, Initial residual = 0, Final residual = 0, No Iterations 0
diagonal:  Solving for T, Initial residual = 0, Final residual = 0, No Iterations 0
diagonal:  Solving for T, Initial residual = 0, Final residual = 0, No Iterations 0
diagonal:  Solving for T, Initial residual = 0, Final residual = 0, No Iterations 0
 T goes from min(T) [0 0 0 0 0 0 0] -0.103172 to max(T) [0 0 0 0 0 0 0] 0.833408

ExecutionTime = 1216.15 s  ClockTime = 5346 s

Time = 5.9225
Courant Number mean: 0.208305 max: 0.465832
diagonal:  Solving for T, Initial residual = 0, Final residual = 0, No Iterations 0
diagonal:  Solving for T, Initial residual = 0, Final residual = 0, No Iterations 0
diagonal:  Solving for T, Initial residual = 0, Final residual = 0, No Iterations 0
diagonal:  Solving for T, Initial residual = 0, Final residual = 0, No Iterations 0
 T goes from min(T) [0 0 0 0 0 0 0] -0.102604 to max(T) [0 0 0 0 0 0 0] 0.833462

ExecutionTime = 1216.64 s  ClockTime = 5347 s

Time = 5.925
Courant Number mean: 0.208372 max: 0.46534
diagonal:  Solving for T, Initial residual = 0, Final residual = 0, No Iterations 0
diagonal:  Solving for T, Initial residual = 0, Final residual = 0, No Iterations 0
diagonal:  Solving for T, Initial residual = 0, Final residual = 0, No Iterations 0
diagonal:  Solving for T, Initial residual = 0, Final residual = 0, No Iterations 0
 T goes from min(T) [0 0 0 0 0 0 0] -0.102649 to max(T) [0 0 0 0 0 0 0] 0.83347

ExecutionTime = 1217.26 s  ClockTime = 5348 s

Time = 5.9275
Courant Number mean: 0.208438 max: 0.464842
diagonal:  Solving for T, Initial residual = 0, Final residual = 0, No Iterations 0
diagonal:  Solving for T, Initial residual = 0, Final residual = 0, No Iterations 0
diagonal:  Solving for T, Initial residual = 0, Final residual = 0, No Iterations 0
diagonal:  Solving for T, Initial residual = 0, Final residual = 0, No Iterations 0
 T goes from min(T) [0 0 0 0 0 0 0] -0.103152 to max(T) [0 0 0 0 0 0 0] 0.833433

ExecutionTime = 1217.86 s  ClockTime = 5348 s

Time = 5.93
Courant Number mean: 0.208503 max: 0.464337
diagonal:  Solving for T, Initial residual = 0, Final residual = 0, No Iterations 0
diagonal:  Solving for T, Initial residual = 0, Final residual = 0, No Iterations 0
diagonal:  Solving for T, Initial residual = 0, Final residual = 0, No Iterations 0
diagonal:  Solving for T, Initial residual = 0, Final residual = 0, No Iterations 0
 T goes from min(T) [0 0 0 0 0 0 0] -0.103506 to max(T) [0 0 0 0 0 0 0] 0.833352

ExecutionTime = 1218.55 s  ClockTime = 5349 s

Time = 5.9325
Courant Number mean: 0.208568 max: 0.463825
diagonal:  Solving for T, Initial residual = 0, Final residual = 0, No Iterations 0
diagonal:  Solving for T, Initial residual = 0, Final residual = 0, No Iterations 0
diagonal:  Solving for T, Initial residual = 0, Final residual = 0, No Iterations 0
diagonal:  Solving for T, Initial residual = 0, Final residual = 0, No Iterations 0
 T goes from min(T) [0 0 0 0 0 0 0] -0.103633 to max(T) [0 0 0 0 0 0 0] 0.833228

ExecutionTime = 1219.17 s  ClockTime = 5350 s

Time = 5.935
Courant Number mean: 0.208632 max: 0.463339
diagonal:  Solving for T, Initial residual = 0, Final residual = 0, No Iterations 0
diagonal:  Solving for T, Initial residual = 0, Final residual = 0, No Iterations 0
diagonal:  Solving for T, Initial residual = 0, Final residual = 0, No Iterations 0
diagonal:  Solving for T, Initial residual = 0, Final residual = 0, No Iterations 0
 T goes from min(T) [0 0 0 0 0 0 0] -0.103617 to max(T) [0 0 0 0 0 0 0] 0.83321

ExecutionTime = 1219.69 s  ClockTime = 5351 s

Time = 5.9375
Courant Number mean: 0.208696 max: 0.462856
diagonal:  Solving for T, Initial residual = 0, Final residual = 0, No Iterations 0
diagonal:  Solving for T, Initial residual = 0, Final residual = 0, No Iterations 0
diagonal:  Solving for T, Initial residual = 0, Final residual = 0, No Iterations 0
diagonal:  Solving for T, Initial residual = 0, Final residual = 0, No Iterations 0
 T goes from min(T) [0 0 0 0 0 0 0] -0.103462 to max(T) [0 0 0 0 0 0 0] 0.833368

ExecutionTime = 1220.18 s  ClockTime = 5352 s

Time = 5.94
Courant Number mean: 0.20876 max: 0.462366
diagonal:  Solving for T, Initial residual = 0, Final residual = 0, No Iterations 0
diagonal:  Solving for T, Initial residual = 0, Final residual = 0, No Iterations 0
diagonal:  Solving for T, Initial residual = 0, Final residual = 0, No Iterations 0
diagonal:  Solving for T, Initial residual = 0, Final residual = 0, No Iterations 0
 T goes from min(T) [0 0 0 0 0 0 0] -0.103108 to max(T) [0 0 0 0 0 0 0] 0.833487

ExecutionTime = 1220.75 s  ClockTime = 5353 s

Time = 5.9425
Courant Number mean: 0.208823 max: 0.46187
diagonal:  Solving for T, Initial residual = 0, Final residual = 0, No Iterations 0
diagonal:  Solving for T, Initial residual = 0, Final residual = 0, No Iterations 0
diagonal:  Solving for T, Initial residual = 0, Final residual = 0, No Iterations 0
diagonal:  Solving for T, Initial residual = 0, Final residual = 0, No Iterations 0
 T goes from min(T) [0 0 0 0 0 0 0] -0.10276 to max(T) [0 0 0 0 0 0 0] 0.833569

ExecutionTime = 1221.38 s  ClockTime = 5354 s

Time = 5.945
Courant Number mean: 0.208886 max: 0.461368
diagonal:  Solving for T, Initial residual = 0, Final residual = 0, No Iterations 0
diagonal:  Solving for T, Initial residual = 0, Final residual = 0, No Iterations 0
diagonal:  Solving for T, Initial residual = 0, Final residual = 0, No Iterations 0
diagonal:  Solving for T, Initial residual = 0, Final residual = 0, No Iterations 0
 T goes from min(T) [0 0 0 0 0 0 0] -0.102288 to max(T) [0 0 0 0 0 0 0] 0.833614

ExecutionTime = 1221.88 s  ClockTime = 5355 s

Time = 5.9475
Courant Number mean: 0.208948 max: 0.460858
diagonal:  Solving for T, Initial residual = 0, Final residual = 0, No Iterations 0
diagonal:  Solving for T, Initial residual = 0, Final residual = 0, No Iterations 0
diagonal:  Solving for T, Initial residual = 0, Final residual = 0, No Iterations 0
diagonal:  Solving for T, Initial residual = 0, Final residual = 0, No Iterations 0
 T goes from min(T) [0 0 0 0 0 0 0] -0.102841 to max(T) [0 0 0 0 0 0 0] 0.833623

ExecutionTime = 1222.39 s  ClockTime = 5356 s

Time = 5.95
Courant Number mean: 0.209009 max: 0.460342
diagonal:  Solving for T, Initial residual = 0, Final residual = 0, No Iterations 0
diagonal:  Solving for T, Initial residual = 0, Final residual = 0, No Iterations 0
diagonal:  Solving for T, Initial residual = 0, Final residual = 0, No Iterations 0
diagonal:  Solving for T, Initial residual = 0, Final residual = 0, No Iterations 0
 T goes from min(T) [0 0 0 0 0 0 0] -0.103191 to max(T) [0 0 0 0 0 0 0] 0.833598

ExecutionTime = 1222.89 s  ClockTime = 5356 s

Time = 5.9525
Courant Number mean: 0.209069 max: 0.45983
diagonal:  Solving for T, Initial residual = 0, Final residual = 0, No Iterations 0
diagonal:  Solving for T, Initial residual = 0, Final residual = 0, No Iterations 0
diagonal:  Solving for T, Initial residual = 0, Final residual = 0, No Iterations 0
diagonal:  Solving for T, Initial residual = 0, Final residual = 0, No Iterations 0
 T goes from min(T) [0 0 0 0 0 0 0] -0.103391 to max(T) [0 0 0 0 0 0 0] 0.833538

ExecutionTime = 1223.42 s  ClockTime = 5357 s

Time = 5.955
Courant Number mean: 0.209129 max: 0.459326
diagonal:  Solving for T, Initial residual = 0, Final residual = 0, No Iterations 0
diagonal:  Solving for T, Initial residual = 0, Final residual = 0, No Iterations 0
diagonal:  Solving for T, Initial residual = 0, Final residual = 0, No Iterations 0
diagonal:  Solving for T, Initial residual = 0, Final residual = 0, No Iterations 0
 T goes from min(T) [0 0 0 0 0 0 0] -0.103444 to max(T) [0 0 0 0 0 0 0] 0.833445

ExecutionTime = 1224.03 s  ClockTime = 5358 s

Time = 5.9575
Courant Number mean: 0.209188 max: 0.458821
diagonal:  Solving for T, Initial residual = 0, Final residual = 0, No Iterations 0
diagonal:  Solving for T, Initial residual = 0, Final residual = 0, No Iterations 0
diagonal:  Solving for T, Initial residual = 0, Final residual = 0, No Iterations 0
diagonal:  Solving for T, Initial residual = 0, Final residual = 0, No Iterations 0
 T goes from min(T) [0 0 0 0 0 0 0] -0.103321 to max(T) [0 0 0 0 0 0 0] 0.833319

ExecutionTime = 1224.69 s  ClockTime = 5359 s

Time = 5.96
Courant Number mean: 0.209248 max: 0.458346
diagonal:  Solving for T, Initial residual = 0, Final residual = 0, No Iterations 0
diagonal:  Solving for T, Initial residual = 0, Final residual = 0, No Iterations 0
diagonal:  Solving for T, Initial residual = 0, Final residual = 0, No Iterations 0
diagonal:  Solving for T, Initial residual = 0, Final residual = 0, No Iterations 0
 T goes from min(T) [0 0 0 0 0 0 0] -0.103157 to max(T) [0 0 0 0 0 0 0] 0.833162

ExecutionTime = 1225.18 s  ClockTime = 5360 s

Time = 5.9625
Courant Number mean: 0.209307 max: 0.457863
diagonal:  Solving for T, Initial residual = 0, Final residual = 0, No Iterations 0
diagonal:  Solving for T, Initial residual = 0, Final residual = 0, No Iterations 0
diagonal:  Solving for T, Initial residual = 0, Final residual = 0, No Iterations 0
diagonal:  Solving for T, Initial residual = 0, Final residual = 0, No Iterations 0
 T goes from min(T) [0 0 0 0 0 0 0] -0.10275 to max(T) [0 0 0 0 0 0 0] 0.832974

ExecutionTime = 1225.68 s  ClockTime = 5360 s

Time = 5.965
Courant Number mean: 0.209365 max: 0.457374
diagonal:  Solving for T, Initial residual = 0, Final residual = 0, No Iterations 0
diagonal:  Solving for T, Initial residual = 0, Final residual = 0, No Iterations 0
diagonal:  Solving for T, Initial residual = 0, Final residual = 0, No Iterations 0
diagonal:  Solving for T, Initial residual = 0, Final residual = 0, No Iterations 0
 T goes from min(T) [0 0 0 0 0 0 0] -0.102443 to max(T) [0 0 0 0 0 0 0] 0.832947

ExecutionTime = 1226.16 s  ClockTime = 5361 s

Time = 5.9675
Courant Number mean: 0.209422 max: 0.456879
diagonal:  Solving for T, Initial residual = 0, Final residual = 0, No Iterations 0
diagonal:  Solving for T, Initial residual = 0, Final residual = 0, No Iterations 0
diagonal:  Solving for T, Initial residual = 0, Final residual = 0, No Iterations 0
diagonal:  Solving for T, Initial residual = 0, Final residual = 0, No Iterations 0
 T goes from min(T) [0 0 0 0 0 0 0] -0.102442 to max(T) [0 0 0 0 0 0 0] 0.833074

ExecutionTime = 1226.66 s  ClockTime = 5362 s

Time = 5.97
Courant Number mean: 0.209478 max: 0.456377
diagonal:  Solving for T, Initial residual = 0, Final residual = 0, No Iterations 0
diagonal:  Solving for T, Initial residual = 0, Final residual = 0, No Iterations 0
diagonal:  Solving for T, Initial residual = 0, Final residual = 0, No Iterations 0
diagonal:  Solving for T, Initial residual = 0, Final residual = 0, No Iterations 0
 T goes from min(T) [0 0 0 0 0 0 0] -0.102865 to max(T) [0 0 0 0 0 0 0] 0.833174

ExecutionTime = 1227.16 s  ClockTime = 5363 s

Time = 5.9725
Courant Number mean: 0.209534 max: 0.455869
diagonal:  Solving for T, Initial residual = 0, Final residual = 0, No Iterations 0
diagonal:  Solving for T, Initial residual = 0, Final residual = 0, No Iterations 0
diagonal:  Solving for T, Initial residual = 0, Final residual = 0, No Iterations 0
diagonal:  Solving for T, Initial residual = 0, Final residual = 0, No Iterations 0
 T goes from min(T) [0 0 0 0 0 0 0] -0.103107 to max(T) [0 0 0 0 0 0 0] 0.833247

ExecutionTime = 1227.65 s  ClockTime = 5363 s

Time = 5.975
Courant Number mean: 0.209589 max: 0.455354
diagonal:  Solving for T, Initial residual = 0, Final residual = 0, No Iterations 0
diagonal:  Solving for T, Initial residual = 0, Final residual = 0, No Iterations 0
diagonal:  Solving for T, Initial residual = 0, Final residual = 0, No Iterations 0
diagonal:  Solving for T, Initial residual = 0, Final residual = 0, No Iterations 0
 T goes from min(T) [0 0 0 0 0 0 0] -0.103224 to max(T) [0 0 0 0 0 0 0] 0.833293

ExecutionTime = 1228.14 s  ClockTime = 5364 s

Time = 5.9775
Courant Number mean: 0.209644 max: 0.454832
diagonal:  Solving for T, Initial residual = 0, Final residual = 0, No Iterations 0
diagonal:  Solving for T, Initial residual = 0, Final residual = 0, No Iterations 0
diagonal:  Solving for T, Initial residual = 0, Final residual = 0, No Iterations 0
diagonal:  Solving for T, Initial residual = 0, Final residual = 0, No Iterations 0
 T goes from min(T) [0 0 0 0 0 0 0] -0.103226 to max(T) [0 0 0 0 0 0 0] 0.833314

ExecutionTime = 1228.64 s  ClockTime = 5365 s

Time = 5.98
Courant Number mean: 0.209698 max: 0.454305
diagonal:  Solving for T, Initial residual = 0, Final residual = 0, No Iterations 0
diagonal:  Solving for T, Initial residual = 0, Final residual = 0, No Iterations 0
diagonal:  Solving for T, Initial residual = 0, Final residual = 0, No Iterations 0
diagonal:  Solving for T, Initial residual = 0, Final residual = 0, No Iterations 0
 T goes from min(T) [0 0 0 0 0 0 0] -0.103073 to max(T) [0 0 0 0 0 0 0] 0.833309

ExecutionTime = 1229.12 s  ClockTime = 5365 s

Time = 5.9825
Courant Number mean: 0.209752 max: 0.453771
diagonal:  Solving for T, Initial residual = 0, Final residual = 0, No Iterations 0
diagonal:  Solving for T, Initial residual = 0, Final residual = 0, No Iterations 0
diagonal:  Solving for T, Initial residual = 0, Final residual = 0, No Iterations 0
diagonal:  Solving for T, Initial residual = 0, Final residual = 0, No Iterations 0
 T goes from min(T) [0 0 0 0 0 0 0] -0.102901 to max(T) [0 0 0 0 0 0 0] 0.833281

ExecutionTime = 1229.6 s  ClockTime = 5366 s

Time = 5.985
Courant Number mean: 0.209806 max: 0.45323
diagonal:  Solving for T, Initial residual = 0, Final residual = 0, No Iterations 0
diagonal:  Solving for T, Initial residual = 0, Final residual = 0, No Iterations 0
diagonal:  Solving for T, Initial residual = 0, Final residual = 0, No Iterations 0
diagonal:  Solving for T, Initial residual = 0, Final residual = 0, No Iterations 0
 T goes from min(T) [0 0 0 0 0 0 0] -0.102522 to max(T) [0 0 0 0 0 0 0] 0.833229

ExecutionTime = 1230.1 s  ClockTime = 5367 s

Time = 5.9875
Courant Number mean: 0.209858 max: 0.452721
diagonal:  Solving for T, Initial residual = 0, Final residual = 0, No Iterations 0
diagonal:  Solving for T, Initial residual = 0, Final residual = 0, No Iterations 0
diagonal:  Solving for T, Initial residual = 0, Final residual = 0, No Iterations 0
diagonal:  Solving for T, Initial residual = 0, Final residual = 0, No Iterations 0
 T goes from min(T) [0 0 0 0 0 0 0] -0.102226 to max(T) [0 0 0 0 0 0 0] 0.833154

ExecutionTime = 1230.61 s  ClockTime = 5367 s

Time = 5.99
Courant Number mean: 0.209909 max: 0.452234
diagonal:  Solving for T, Initial residual = 0, Final residual = 0, No Iterations 0
diagonal:  Solving for T, Initial residual = 0, Final residual = 0, No Iterations 0
diagonal:  Solving for T, Initial residual = 0, Final residual = 0, No Iterations 0
diagonal:  Solving for T, Initial residual = 0, Final residual = 0, No Iterations 0
 T goes from min(T) [0 0 0 0 0 0 0] -0.102441 to max(T) [0 0 0 0 0 0 0] 0.833107

ExecutionTime = 1231.1 s  ClockTime = 5368 s

Time = 5.9925
Courant Number mean: 0.20996 max: 0.45174
diagonal:  Solving for T, Initial residual = 0, Final residual = 0, No Iterations 0
diagonal:  Solving for T, Initial residual = 0, Final residual = 0, No Iterations 0
diagonal:  Solving for T, Initial residual = 0, Final residual = 0, No Iterations 0
diagonal:  Solving for T, Initial residual = 0, Final residual = 0, No Iterations 0
 T goes from min(T) [0 0 0 0 0 0 0] -0.102803 to max(T) [0 0 0 0 0 0 0] 0.833059

ExecutionTime = 1231.59 s  ClockTime = 5369 s

Time = 5.995
Courant Number mean: 0.21001 max: 0.451239
diagonal:  Solving for T, Initial residual = 0, Final residual = 0, No Iterations 0
diagonal:  Solving for T, Initial residual = 0, Final residual = 0, No Iterations 0
diagonal:  Solving for T, Initial residual = 0, Final residual = 0, No Iterations 0
diagonal:  Solving for T, Initial residual = 0, Final residual = 0, No Iterations 0
 T goes from min(T) [0 0 0 0 0 0 0] -0.102952 to max(T) [0 0 0 0 0 0 0] 0.832983

ExecutionTime = 1232.08 s  ClockTime = 5369 s

Time = 5.9975
Courant Number mean: 0.210059 max: 0.450732
diagonal:  Solving for T, Initial residual = 0, Final residual = 0, No Iterations 0
diagonal:  Solving for T, Initial residual = 0, Final residual = 0, No Iterations 0
diagonal:  Solving for T, Initial residual = 0, Final residual = 0, No Iterations 0
diagonal:  Solving for T, Initial residual = 0, Final residual = 0, No Iterations 0
 T goes from min(T) [0 0 0 0 0 0 0] -0.103058 to max(T) [0 0 0 0 0 0 0] 0.832879

ExecutionTime = 1232.59 s  ClockTime = 5370 s

Time = 6
Courant Number mean: 0.210109 max: 0.450219
diagonal:  Solving for T, Initial residual = 0, Final residual = 0, No Iterations 0
diagonal:  Solving for T, Initial residual = 0, Final residual = 0, No Iterations 0
diagonal:  Solving for T, Initial residual = 0, Final residual = 0, No Iterations 0
diagonal:  Solving for T, Initial residual = 0, Final residual = 0, No Iterations 0
 T goes from min(T) [0 0 0 0 0 0 0] -0.103005 to max(T) [0 0 0 0 0 0 0] 0.832748

ExecutionTime = 1233.16 s  ClockTime = 5371 s

End

