/*---------------------------------------------------------------------------*\
| =========                 |                                                 |
| \\      /  F ield         | OpenFOAM: The Open Source CFD Toolbox           |
|  \\    /   O peration     | Version:  dev                                   |
|   \\  /    A nd           | Web:      www.OpenFOAM.org                      |
|    \\/     M anipulation  |                                                 |
\*---------------------------------------------------------------------------*/
Build  : dev-90f39e0d894d
Exec   : scalarDeformationWithGhosts implicit -case nonOrthogW/240x120/c2_implicit
Date   : May 23 2017
Time   : 20:31:19
Host   : "sws02hw.private.rdg.ac.uk"
PID    : 22916
Case   : nonOrthogW/240x120/c2_implicit
nProcs : 1
sigFpe : Enabling floating point exception trapping (FOAM_SIGFPE).
fileModificationChecking : Monitoring run-time modified files using timeStampMaster (fileModificationSkew 10)
allowSystemOperations : Allowing user-supplied system call operations

// * * * * * * * * * * * * * * * * * * * * * * * * * * * * * * * * * * * * * //
Create time

Create mesh for time = 0

Reading field T

Reading fields phi (compulsory), U and Uf (optional)

Calculating owner stencils
Calculating neighbour stencils

Calculating scalar transport

Courant Number mean: 0.931196 max: 1.93016
Time = 0.01
Courant Number mean: 0.931147 max: 1.93502
DILUPBiCG:  Solving for T, Initial residual = 0.0134278, Final residual = 2.03583e-10, No Iterations 5
DILUPBiCG:  Solving for T, Initial residual = 0.000104232, Final residual = 3.54098e-09, No Iterations 3
DILUPBiCG:  Solving for T, Initial residual = 6.96717e-07, Final residual = 5.68176e-10, No Iterations 2
DILUPBiCG:  Solving for T, Initial residual = 4.08737e-08, Final residual = 2.49767e-09, No Iterations 1
 T goes from min(T) [0 0 0 0 0 0 0] 7.47875e-21 to max(T) [0 0 0 0 0 0 0] 0.953283

ExecutionTime = 8.4 s  ClockTime = 165 s

Time = 0.02
Courant Number mean: 0.93098 max: 1.94054
DILUPBiCG:  Solving for T, Initial residual = 0.0134272, Final residual = 2.06458e-10, No Iterations 5
DILUPBiCG:  Solving for T, Initial residual = 0.000104673, Final residual = 3.78668e-09, No Iterations 3
DILUPBiCG:  Solving for T, Initial residual = 7.05675e-07, Final residual = 5.7922e-10, No Iterations 2
DILUPBiCG:  Solving for T, Initial residual = 4.18224e-08, Final residual = 2.42176e-09, No Iterations 1
 T goes from min(T) [0 0 0 0 0 0 0] 8.26259e-21 to max(T) [0 0 0 0 0 0 0] 0.953773

ExecutionTime = 8.98 s  ClockTime = 177 s

Time = 0.03
Courant Number mean: 0.930711 max: 1.94554
DILUPBiCG:  Solving for T, Initial residual = 0.0134336, Final residual = 2.11425e-10, No Iterations 5
DILUPBiCG:  Solving for T, Initial residual = 0.000105209, Final residual = 4.21025e-09, No Iterations 3
DILUPBiCG:  Solving for T, Initial residual = 7.20116e-07, Final residual = 6.02814e-10, No Iterations 2
DILUPBiCG:  Solving for T, Initial residual = 4.45788e-08, Final residual = 2.43668e-09, No Iterations 1
 T goes from min(T) [0 0 0 0 0 0 0] 7.70649e-21 to max(T) [0 0 0 0 0 0 0] 0.953362

ExecutionTime = 9.53 s  ClockTime = 188 s

Time = 0.04
Courant Number mean: 0.930325 max: 1.95002
DILUPBiCG:  Solving for T, Initial residual = 0.013443, Final residual = 2.18484e-10, No Iterations 5
DILUPBiCG:  Solving for T, Initial residual = 0.000105834, Final residual = 4.87117e-09, No Iterations 3
DILUPBiCG:  Solving for T, Initial residual = 7.43844e-07, Final residual = 6.44102e-10, No Iterations 2
DILUPBiCG:  Solving for T, Initial residual = 4.79848e-08, Final residual = 2.47881e-09, No Iterations 1
 T goes from min(T) [0 0 0 0 0 0 0] 8.26292e-21 to max(T) [0 0 0 0 0 0 0] 0.953865

ExecutionTime = 10.08 s  ClockTime = 200 s

Time = 0.05
Courant Number mean: 0.929835 max: 1.95524
DILUPBiCG:  Solving for T, Initial residual = 0.0134539, Final residual = 2.27951e-10, No Iterations 5
DILUPBiCG:  Solving for T, Initial residual = 0.000106542, Final residual = 5.86518e-09, No Iterations 3
DILUPBiCG:  Solving for T, Initial residual = 7.76908e-07, Final residual = 7.06793e-10, No Iterations 2
DILUPBiCG:  Solving for T, Initial residual = 5.19918e-08, Final residual = 2.55163e-09, No Iterations 1
 T goes from min(T) [0 0 0 0 0 0 0] 7.8201e-21 to max(T) [0 0 0 0 0 0 0] 0.953478

ExecutionTime = 10.66 s  ClockTime = 212 s

Time = 0.06
Courant Number mean: 0.929233 max: 1.95994
DILUPBiCG:  Solving for T, Initial residual = 0.0134673, Final residual = 8.16051e-09, No Iterations 4
DILUPBiCG:  Solving for T, Initial residual = 0.000107335, Final residual = 7.36482e-09, No Iterations 3
DILUPBiCG:  Solving for T, Initial residual = 8.16414e-07, Final residual = 7.93698e-10, No Iterations 2
DILUPBiCG:  Solving for T, Initial residual = 5.66533e-08, Final residual = 2.67258e-09, No Iterations 1
 T goes from min(T) [0 0 0 0 0 0 0] 8.24182e-21 to max(T) [0 0 0 0 0 0 0] 0.953902

ExecutionTime = 11.18 s  ClockTime = 223 s

Time = 0.07
Courant Number mean: 0.928526 max: 1.9646
DILUPBiCG:  Solving for T, Initial residual = 0.013482, Final residual = 5.83482e-09, No Iterations 4
DILUPBiCG:  Solving for T, Initial residual = 0.000108213, Final residual = 9.5554e-09, No Iterations 3
DILUPBiCG:  Solving for T, Initial residual = 8.59878e-07, Final residual = 9.0017e-10, No Iterations 2
DILUPBiCG:  Solving for T, Initial residual = 6.27258e-08, Final residual = 2.88007e-09, No Iterations 1
 T goes from min(T) [0 0 0 0 0 0 0] 7.87503e-21 to max(T) [0 0 0 0 0 0 0] 0.953682

ExecutionTime = 11.71 s  ClockTime = 234 s

Time = 0.08
Courant Number mean: 0.92771 max: 1.969
DILUPBiCG:  Solving for T, Initial residual = 0.0134972, Final residual = 4.5968e-09, No Iterations 4
DILUPBiCG:  Solving for T, Initial residual = 0.000109162, Final residual = 6.76331e-11, No Iterations 4
DILUPBiCG:  Solving for T, Initial residual = 9.12408e-07, Final residual = 9.84909e-10, No Iterations 2
DILUPBiCG:  Solving for T, Initial residual = 7.04182e-08, Final residual = 3.19543e-09, No Iterations 1
 T goes from min(T) [0 0 0 0 0 0 0] 8.17669e-21 to max(T) [0 0 0 0 0 0 0] 0.953853

ExecutionTime = 12.23 s  ClockTime = 245 s

Time = 0.09
Courant Number mean: 0.926783 max: 1.97365
DILUPBiCG:  Solving for T, Initial residual = 0.0135133, Final residual = 3.90505e-09, No Iterations 4
DILUPBiCG:  Solving for T, Initial residual = 0.000110202, Final residual = 7.36707e-11, No Iterations 4
DILUPBiCG:  Solving for T, Initial residual = 9.69041e-07, Final residual = 1.12119e-09, No Iterations 2
DILUPBiCG:  Solving for T, Initial residual = 7.97207e-08, Final residual = 3.63684e-09, No Iterations 1
 T goes from min(T) [0 0 0 0 0 0 0] 7.90594e-21 to max(T) [0 0 0 0 0 0 0] 0.953972

ExecutionTime = 12.75 s  ClockTime = 255 s

Time = 0.1
Courant Number mean: 0.92575 max: 1.97826
DILUPBiCG:  Solving for T, Initial residual = 0.0135304, Final residual = 3.63185e-09, No Iterations 4
DILUPBiCG:  Solving for T, Initial residual = 0.000111315, Final residual = 8.4915e-11, No Iterations 4
DILUPBiCG:  Solving for T, Initial residual = 1.03227e-06, Final residual = 1.27747e-09, No Iterations 2
DILUPBiCG:  Solving for T, Initial residual = 9.05494e-08, Final residual = 4.18564e-09, No Iterations 1
 T goes from min(T) [0 0 0 0 0 0 0] 8.09786e-21 to max(T) [0 0 0 0 0 0 0] 0.953648

ExecutionTime = 13.26 s  ClockTime = 264 s

Time = 0.11
Courant Number mean: 0.924607 max: 1.98234
DILUPBiCG:  Solving for T, Initial residual = 0.0135474, Final residual = 3.70874e-09, No Iterations 4
DILUPBiCG:  Solving for T, Initial residual = 0.000112529, Final residual = 1.12267e-10, No Iterations 4
DILUPBiCG:  Solving for T, Initial residual = 1.10324e-06, Final residual = 1.46107e-09, No Iterations 2
DILUPBiCG:  Solving for T, Initial residual = 1.02805e-07, Final residual = 4.82165e-09, No Iterations 1
 T goes from min(T) [0 0 0 0 0 0 0] 7.92805e-21 to max(T) [0 0 0 0 0 0 0] 0.954213

ExecutionTime = 13.8 s  ClockTime = 275 s

Time = 0.12
Courant Number mean: 0.92336 max: 1.98659
DILUPBiCG:  Solving for T, Initial residual = 0.0135659, Final residual = 3.97697e-09, No Iterations 4
DILUPBiCG:  Solving for T, Initial residual = 0.00011382, Final residual = 2.8281e-10, No Iterations 4
DILUPBiCG:  Solving for T, Initial residual = 1.18282e-06, Final residual = 1.67441e-09, No Iterations 2
DILUPBiCG:  Solving for T, Initial residual = 1.16763e-07, Final residual = 5.56786e-09, No Iterations 1
 T goes from min(T) [0 0 0 0 0 0 0] 8.01739e-21 to max(T) [0 0 0 0 0 0 0] 0.953248

ExecutionTime = 14.34 s  ClockTime = 285 s

Time = 0.13
Courant Number mean: 0.922004 max: 1.99088
DILUPBiCG:  Solving for T, Initial residual = 0.0135854, Final residual = 4.34166e-09, No Iterations 4
DILUPBiCG:  Solving for T, Initial residual = 0.000115175, Final residual = 1.59555e-10, No Iterations 4
DILUPBiCG:  Solving for T, Initial residual = 1.27157e-06, Final residual = 1.92659e-09, No Iterations 2
DILUPBiCG:  Solving for T, Initial residual = 1.32251e-07, Final residual = 6.41011e-09, No Iterations 1
 T goes from min(T) [0 0 0 0 0 0 0] 7.94898e-21 to max(T) [0 0 0 0 0 0 0] 0.954356

ExecutionTime = 14.84 s  ClockTime = 295 s

Time = 0.14
Courant Number mean: 0.920546 max: 1.99465
DILUPBiCG:  Solving for T, Initial residual = 0.013604, Final residual = 4.77018e-09, No Iterations 4
DILUPBiCG:  Solving for T, Initial residual = 0.000116582, Final residual = 7.92819e-11, No Iterations 4
DILUPBiCG:  Solving for T, Initial residual = 1.36741e-06, Final residual = 2.2341e-09, No Iterations 2
DILUPBiCG:  Solving for T, Initial residual = 1.49533e-07, Final residual = 7.36945e-09, No Iterations 1
 T goes from min(T) [0 0 0 0 0 0 0] 7.94123e-21 to max(T) [0 0 0 0 0 0 0] 0.953244

ExecutionTime = 15.36 s  ClockTime = 305 s

Time = 0.15
Courant Number mean: 0.918972 max: 1.99852
DILUPBiCG:  Solving for T, Initial residual = 0.0136225, Final residual = 5.29776e-09, No Iterations 4
DILUPBiCG:  Solving for T, Initial residual = 0.00011807, Final residual = 8.62844e-09, No Iterations 3
DILUPBiCG:  Solving for T, Initial residual = 1.46749e-06, Final residual = 2.59595e-09, No Iterations 2
DILUPBiCG:  Solving for T, Initial residual = 1.68303e-07, Final residual = 8.44635e-09, No Iterations 1
 T goes from min(T) [0 0 0 0 0 0 0] 7.97087e-21 to max(T) [0 0 0 0 0 0 0] 0.95431

ExecutionTime = 15.88 s  ClockTime = 314 s

Time = 0.16
Courant Number mean: 0.917318 max: 2.00244
DILUPBiCG:  Solving for T, Initial residual = 0.0136411, Final residual = 6.15242e-09, No Iterations 4
DILUPBiCG:  Solving for T, Initial residual = 0.000119578, Final residual = 7.0348e-09, No Iterations 3
DILUPBiCG:  Solving for T, Initial residual = 1.57576e-06, Final residual = 3.08324e-09, No Iterations 2
DILUPBiCG:  Solving for T, Initial residual = 1.88671e-07, Final residual = 9.59119e-09, No Iterations 1
 T goes from min(T) [0 0 0 0 0 0 0] 7.87e-21 to max(T) [0 0 0 0 0 0 0] 0.953933

ExecutionTime = 16.4 s  ClockTime = 324 s

Time = 0.17
Courant Number mean: 0.915586 max: 2.00631
DILUPBiCG:  Solving for T, Initial residual = 0.0136603, Final residual = 2.33088e-10, No Iterations 5
DILUPBiCG:  Solving for T, Initial residual = 0.000121142, Final residual = 5.87087e-09, No Iterations 3
DILUPBiCG:  Solving for T, Initial residual = 1.69035e-06, Final residual = 3.59871e-09, No Iterations 2
DILUPBiCG:  Solving for T, Initial residual = 2.10299e-07, Final residual = 1.67676e-10, No Iterations 2
 T goes from min(T) [0 0 0 0 0 0 0] 7.99514e-21 to max(T) [0 0 0 0 0 0 0] 0.953918

ExecutionTime = 16.92 s  ClockTime = 334 s

Time = 0.18
Courant Number mean: 0.913772 max: 2.00998
DILUPBiCG:  Solving for T, Initial residual = 0.0136809, Final residual = 6.97409e-09, No Iterations 4
DILUPBiCG:  Solving for T, Initial residual = 0.000122783, Final residual = 5.01778e-09, No Iterations 3
DILUPBiCG:  Solving for T, Initial residual = 1.80958e-06, Final residual = 4.09916e-09, No Iterations 2
DILUPBiCG:  Solving for T, Initial residual = 2.33109e-07, Final residual = 1.79075e-10, No Iterations 2
 T goes from min(T) [0 0 0 0 0 0 0] 7.80428e-21 to max(T) [0 0 0 0 0 0 0] 0.95444

ExecutionTime = 17.47 s  ClockTime = 345 s

Time = 0.19
Courant Number mean: 0.911892 max: 2.01314
DILUPBiCG:  Solving for T, Initial residual = 0.013701, Final residual = 4.79873e-09, No Iterations 4
DILUPBiCG:  Solving for T, Initial residual = 0.000124482, Final residual = 4.38429e-09, No Iterations 3
DILUPBiCG:  Solving for T, Initial residual = 1.93585e-06, Final residual = 4.47644e-09, No Iterations 2
DILUPBiCG:  Solving for T, Initial residual = 2.57047e-07, Final residual = 1.92765e-10, No Iterations 2
 T goes from min(T) [0 0 0 0 0 0 0] 8.02263e-21 to max(T) [0 0 0 0 0 0 0] 0.953445

ExecutionTime = 17.99 s  ClockTime = 354 s

Time = 0.2
Courant Number mean: 0.909935 max: 2.017
DILUPBiCG:  Solving for T, Initial residual = 0.0137207, Final residual = 5.00268e-09, No Iterations 4
DILUPBiCG:  Solving for T, Initial residual = 0.000126231, Final residual = 3.89927e-09, No Iterations 3
DILUPBiCG:  Solving for T, Initial residual = 2.06558e-06, Final residual = 4.83972e-09, No Iterations 2
DILUPBiCG:  Solving for T, Initial residual = 2.81807e-07, Final residual = 2.04496e-10, No Iterations 2
 T goes from min(T) [0 0 0 0 0 0 0] 7.74433e-21 to max(T) [0 0 0 0 0 0 0] 0.954515

ExecutionTime = 18.5 s  ClockTime = 364 s

Time = 0.21
Courant Number mean: 0.907928 max: 2.02033
DILUPBiCG:  Solving for T, Initial residual = 0.0137409, Final residual = 5.15442e-09, No Iterations 4
DILUPBiCG:  Solving for T, Initial residual = 0.000128071, Final residual = 3.53564e-09, No Iterations 3
DILUPBiCG:  Solving for T, Initial residual = 2.2007e-06, Final residual = 5.26242e-09, No Iterations 2
DILUPBiCG:  Solving for T, Initial residual = 3.07347e-07, Final residual = 2.12378e-10, No Iterations 2
 T goes from min(T) [0 0 0 0 0 0 0] 8.05436e-21 to max(T) [0 0 0 0 0 0 0] 0.954109

ExecutionTime = 19.03 s  ClockTime = 374 s

Time = 0.22
Courant Number mean: 0.905848 max: 2.02313
DILUPBiCG:  Solving for T, Initial residual = 0.0137628, Final residual = 5.24908e-09, No Iterations 4
DILUPBiCG:  Solving for T, Initial residual = 0.000129951, Final residual = 3.25451e-09, No Iterations 3
DILUPBiCG:  Solving for T, Initial residual = 2.33575e-06, Final residual = 5.54337e-09, No Iterations 2
DILUPBiCG:  Solving for T, Initial residual = 3.32683e-07, Final residual = 2.1512e-10, No Iterations 2
 T goes from min(T) [0 0 0 0 0 0 0] 7.69095e-21 to max(T) [0 0 0 0 0 0 0] 0.953756

ExecutionTime = 19.55 s  ClockTime = 382 s

Time = 0.23
Courant Number mean: 0.903726 max: 2.02658
DILUPBiCG:  Solving for T, Initial residual = 0.0137832, Final residual = 5.30704e-09, No Iterations 4
DILUPBiCG:  Solving for T, Initial residual = 0.000131881, Final residual = 3.04599e-09, No Iterations 3
DILUPBiCG:  Solving for T, Initial residual = 2.47293e-06, Final residual = 5.61755e-09, No Iterations 2
DILUPBiCG:  Solving for T, Initial residual = 3.57749e-07, Final residual = 2.06691e-10, No Iterations 2
 T goes from min(T) [0 0 0 0 0 0 0] 8.09112e-21 to max(T) [0 0 0 0 0 0 0] 0.954699

ExecutionTime = 20.07 s  ClockTime = 391 s

Time = 0.24
Courant Number mean: 0.901534 max: 2.02956
DILUPBiCG:  Solving for T, Initial residual = 0.0138031, Final residual = 5.36224e-09, No Iterations 4
DILUPBiCG:  Solving for T, Initial residual = 0.000133885, Final residual = 2.88713e-09, No Iterations 3
DILUPBiCG:  Solving for T, Initial residual = 2.60887e-06, Final residual = 5.42057e-09, No Iterations 2
DILUPBiCG:  Solving for T, Initial residual = 3.81785e-07, Final residual = 1.89648e-10, No Iterations 2
 T goes from min(T) [0 0 0 0 0 0 0] 7.64482e-21 to max(T) [0 0 0 0 0 0 0] 0.953911

ExecutionTime = 20.58 s  ClockTime = 398 s

Time = 0.25
Courant Number mean: 0.899302 max: 2.03249
DILUPBiCG:  Solving for T, Initial residual = 0.0138262, Final residual = 5.42413e-09, No Iterations 4
DILUPBiCG:  Solving for T, Initial residual = 0.000135926, Final residual = 2.78134e-09, No Iterations 3
DILUPBiCG:  Solving for T, Initial residual = 2.74271e-06, Final residual = 4.96452e-09, No Iterations 2
DILUPBiCG:  Solving for T, Initial residual = 4.04848e-07, Final residual = 1.66799e-10, No Iterations 2
 T goes from min(T) [0 0 0 0 0 0 0] 8.13368e-21 to max(T) [0 0 0 0 0 0 0] 0.953932

ExecutionTime = 21.11 s  ClockTime = 406 s

Time = 0.26
Courant Number mean: 0.897006 max: 2.03518
DILUPBiCG:  Solving for T, Initial residual = 0.0138475, Final residual = 5.52607e-09, No Iterations 4
DILUPBiCG:  Solving for T, Initial residual = 0.000137996, Final residual = 2.7149e-09, No Iterations 3
DILUPBiCG:  Solving for T, Initial residual = 2.87385e-06, Final residual = 4.24127e-09, No Iterations 2
DILUPBiCG:  Solving for T, Initial residual = 4.26565e-07, Final residual = 1.35491e-10, No Iterations 2
 T goes from min(T) [0 0 0 0 0 0 0] 7.60669e-21 to max(T) [0 0 0 0 0 0 0] 0.954773

ExecutionTime = 21.65 s  ClockTime = 414 s

Time = 0.27
Courant Number mean: 0.894672 max: 2.03788
DILUPBiCG:  Solving for T, Initial residual = 0.0138686, Final residual = 5.68607e-09, No Iterations 4
DILUPBiCG:  Solving for T, Initial residual = 0.00014017, Final residual = 2.69195e-09, No Iterations 3
DILUPBiCG:  Solving for T, Initial residual = 3.00291e-06, Final residual = 3.38427e-09, No Iterations 2
DILUPBiCG:  Solving for T, Initial residual = 4.46935e-07, Final residual = 1.61612e-10, No Iterations 2
 T goes from min(T) [0 0 0 0 0 0 0] 8.18265e-21 to max(T) [0 0 0 0 0 0 0] 0.95423

ExecutionTime = 22.2 s  ClockTime = 423 s

Time = 0.28
Courant Number mean: 0.892286 max: 2.04077
DILUPBiCG:  Solving for T, Initial residual = 0.0138926, Final residual = 5.93228e-09, No Iterations 4
DILUPBiCG:  Solving for T, Initial residual = 0.000142337, Final residual = 2.71746e-09, No Iterations 3
DILUPBiCG:  Solving for T, Initial residual = 3.12938e-06, Final residual = 2.51491e-09, No Iterations 2
DILUPBiCG:  Solving for T, Initial residual = 4.65491e-07, Final residual = 2.40828e-10, No Iterations 2
 T goes from min(T) [0 0 0 0 0 0 0] 7.57719e-21 to max(T) [0 0 0 0 0 0 0] 0.953351

ExecutionTime = 22.71 s  ClockTime = 430 s

Time = 0.29
Courant Number mean: 0.889856 max: 2.04312
DILUPBiCG:  Solving for T, Initial residual = 0.0139136, Final residual = 6.27493e-09, No Iterations 4
DILUPBiCG:  Solving for T, Initial residual = 0.000144601, Final residual = 2.81042e-09, No Iterations 3
DILUPBiCG:  Solving for T, Initial residual = 3.24785e-06, Final residual = 1.76582e-09, No Iterations 2
DILUPBiCG:  Solving for T, Initial residual = 4.81692e-07, Final residual = 4.04196e-10, No Iterations 2
 T goes from min(T) [0 0 0 0 0 0 0] 8.23856e-21 to max(T) [0 0 0 0 0 0 0] 0.954404

ExecutionTime = 23.27 s  ClockTime = 439 s

Time = 0.3
Courant Number mean: 0.887383 max: 2.04535
DILUPBiCG:  Solving for T, Initial residual = 0.0139389, Final residual = 6.71481e-09, No Iterations 4
DILUPBiCG:  Solving for T, Initial residual = 0.000146871, Final residual = 3.04591e-09, No Iterations 3
DILUPBiCG:  Solving for T, Initial residual = 3.3642e-06, Final residual = 1.42943e-09, No Iterations 2
DILUPBiCG:  Solving for T, Initial residual = 4.95867e-07, Final residual = 7.51549e-10, No Iterations 2
 T goes from min(T) [0 0 0 0 0 0 0] 7.55687e-21 to max(T) [0 0 0 0 0 0 0] 0.954594

ExecutionTime = 23.81 s  ClockTime = 447 s

Time = 0.31
Courant Number mean: 0.884864 max: 2.04789
DILUPBiCG:  Solving for T, Initial residual = 0.0139631, Final residual = 7.26058e-09, No Iterations 4
DILUPBiCG:  Solving for T, Initial residual = 0.00014921, Final residual = 3.97217e-09, No Iterations 3
DILUPBiCG:  Solving for T, Initial residual = 3.47521e-06, Final residual = 1.82142e-09, No Iterations 2
DILUPBiCG:  Solving for T, Initial residual = 5.08922e-07, Final residual = 1.72864e-09, No Iterations 2
 T goes from min(T) [0 0 0 0 0 0 0] 8.30182e-21 to max(T) [0 0 0 0 0 0 0] 0.954608

ExecutionTime = 24.36 s  ClockTime = 455 s

Time = 0.32
Courant Number mean: 0.88231 max: 2.04987
DILUPBiCG:  Solving for T, Initial residual = 0.0139869, Final residual = 7.87027e-09, No Iterations 4
DILUPBiCG:  Solving for T, Initial residual = 0.000151594, Final residual = 5.18667e-09, No Iterations 3
DILUPBiCG:  Solving for T, Initial residual = 3.58216e-06, Final residual = 2.28942e-09, No Iterations 2
DILUPBiCG:  Solving for T, Initial residual = 5.19519e-07, Final residual = 2.79243e-11, No Iterations 3
 T goes from min(T) [0 0 0 0 0 0 0] 7.54621e-21 to max(T) [0 0 0 0 0 0 0] 0.954116

ExecutionTime = 24.89 s  ClockTime = 463 s

Time = 0.33
Courant Number mean: 0.879705 max: 2.05176
DILUPBiCG:  Solving for T, Initial residual = 0.0140128, Final residual = 8.53668e-09, No Iterations 4
DILUPBiCG:  Solving for T, Initial residual = 0.000154032, Final residual = 2.19143e-09, No Iterations 3
DILUPBiCG:  Solving for T, Initial residual = 3.68742e-06, Final residual = 2.69218e-09, No Iterations 2
DILUPBiCG:  Solving for T, Initial residual = 5.28627e-07, Final residual = 3.80508e-09, No Iterations 2
 T goes from min(T) [0 0 0 0 0 0 0] 8.27149e-21 to max(T) [0 0 0 0 0 0 0] 0.953253

ExecutionTime = 25.41 s  ClockTime = 471 s

Time = 0.34
Courant Number mean: 0.877075 max: 2.0538
DILUPBiCG:  Solving for T, Initial residual = 0.014037, Final residual = 9.22939e-09, No Iterations 4
DILUPBiCG:  Solving for T, Initial residual = 0.000156479, Final residual = 2.46773e-09, No Iterations 3
DILUPBiCG:  Solving for T, Initial residual = 3.78792e-06, Final residual = 3.04139e-09, No Iterations 2
DILUPBiCG:  Solving for T, Initial residual = 5.36507e-07, Final residual = 1.96363e-09, No Iterations 2
 T goes from min(T) [0 0 0 0 0 0 0] 7.54558e-21 to max(T) [0 0 0 0 0 0 0] 0.953911

ExecutionTime = 25.93 s  ClockTime = 479 s

Time = 0.35
Courant Number mean: 0.874396 max: 2.05561
DILUPBiCG:  Solving for T, Initial residual = 0.0140674, Final residual = 9.98945e-09, No Iterations 4
DILUPBiCG:  Solving for T, Initial residual = 0.000159002, Final residual = 2.68046e-09, No Iterations 3
DILUPBiCG:  Solving for T, Initial residual = 3.87915e-06, Final residual = 3.35057e-09, No Iterations 2
DILUPBiCG:  Solving for T, Initial residual = 5.42812e-07, Final residual = 1.44646e-09, No Iterations 2
 T goes from min(T) [0 0 0 0 0 0 0] 8.19403e-21 to max(T) [0 0 0 0 0 0 0] 0.954472

ExecutionTime = 26.47 s  ClockTime = 487 s

Time = 0.36
Courant Number mean: 0.871694 max: 2.05751
DILUPBiCG:  Solving for T, Initial residual = 0.0140917, Final residual = 5.75704e-10, No Iterations 5
DILUPBiCG:  Solving for T, Initial residual = 0.000161612, Final residual = 2.88263e-09, No Iterations 3
DILUPBiCG:  Solving for T, Initial residual = 3.97704e-06, Final residual = 3.61834e-09, No Iterations 2
DILUPBiCG:  Solving for T, Initial residual = 5.46886e-07, Final residual = 1.20106e-09, No Iterations 2
 T goes from min(T) [0 0 0 0 0 0 0] 7.55529e-21 to max(T) [0 0 0 0 0 0 0] 0.954582

ExecutionTime = 27.02 s  ClockTime = 495 s

Time = 0.37
Courant Number mean: 0.868946 max: 2.05886
DILUPBiCG:  Solving for T, Initial residual = 0.0141238, Final residual = 6.2116e-10, No Iterations 5
DILUPBiCG:  Solving for T, Initial residual = 0.00016415, Final residual = 3.09193e-09, No Iterations 3
DILUPBiCG:  Solving for T, Initial residual = 4.06694e-06, Final residual = 3.85112e-09, No Iterations 2
DILUPBiCG:  Solving for T, Initial residual = 5.50548e-07, Final residual = 1.05181e-09, No Iterations 2
 T goes from min(T) [0 0 0 0 0 0 0] 8.13017e-21 to max(T) [0 0 0 0 0 0 0] 0.954752

ExecutionTime = 27.56 s  ClockTime = 503 s

Time = 0.38
Courant Number mean: 0.866176 max: 2.06051
DILUPBiCG:  Solving for T, Initial residual = 0.0141517, Final residual = 6.7013e-10, No Iterations 5
DILUPBiCG:  Solving for T, Initial residual = 0.000166765, Final residual = 3.32021e-09, No Iterations 3
DILUPBiCG:  Solving for T, Initial residual = 4.14848e-06, Final residual = 4.0638e-09, No Iterations 2
DILUPBiCG:  Solving for T, Initial residual = 5.52227e-07, Final residual = 9.49669e-10, No Iterations 2
 T goes from min(T) [0 0 0 0 0 0 0] 7.57559e-21 to max(T) [0 0 0 0 0 0 0] 0.954988

ExecutionTime = 28.12 s  ClockTime = 511 s

Time = 0.39
Courant Number mean: 0.863364 max: 2.06204
DILUPBiCG:  Solving for T, Initial residual = 0.0141865, Final residual = 7.27888e-10, No Iterations 5
DILUPBiCG:  Solving for T, Initial residual = 0.00016944, Final residual = 3.5789e-09, No Iterations 3
DILUPBiCG:  Solving for T, Initial residual = 4.23596e-06, Final residual = 4.2661e-09, No Iterations 2
DILUPBiCG:  Solving for T, Initial residual = 5.51755e-07, Final residual = 8.71532e-10, No Iterations 2
 T goes from min(T) [0 0 0 0 0 0 0] 8.08019e-21 to max(T) [0 0 0 0 0 0 0] 0.955012

ExecutionTime = 28.63 s  ClockTime = 519 s

Time = 0.4
Courant Number mean: 0.860526 max: 2.06303
DILUPBiCG:  Solving for T, Initial residual = 0.0142196, Final residual = 8.05071e-10, No Iterations 5
DILUPBiCG:  Solving for T, Initial residual = 0.000172175, Final residual = 3.86997e-09, No Iterations 3
DILUPBiCG:  Solving for T, Initial residual = 4.32214e-06, Final residual = 4.45387e-09, No Iterations 2
DILUPBiCG:  Solving for T, Initial residual = 5.50782e-07, Final residual = 8.04779e-10, No Iterations 2
 T goes from min(T) [0 0 0 0 0 0 0] 7.60665e-21 to max(T) [0 0 0 0 0 0 0] 0.954792

ExecutionTime = 29.27 s  ClockTime = 529 s

Time = 0.41
Courant Number mean: 0.857662 max: 2.06418
DILUPBiCG:  Solving for T, Initial residual = 0.0142573, Final residual = 9.18841e-10, No Iterations 5
DILUPBiCG:  Solving for T, Initial residual = 0.000174829, Final residual = 4.19883e-09, No Iterations 3
DILUPBiCG:  Solving for T, Initial residual = 4.3988e-06, Final residual = 4.63454e-09, No Iterations 2
DILUPBiCG:  Solving for T, Initial residual = 5.48132e-07, Final residual = 7.4858e-10, No Iterations 2
 T goes from min(T) [0 0 0 0 0 0 0] 8.04435e-21 to max(T) [0 0 0 0 0 0 0] 0.954833

ExecutionTime = 29.79 s  ClockTime = 536 s

Time = 0.42
Courant Number mean: 0.85476 max: 2.06534
DILUPBiCG:  Solving for T, Initial residual = 0.0142955, Final residual = 1.0365e-09, No Iterations 5
DILUPBiCG:  Solving for T, Initial residual = 0.00017763, Final residual = 4.56617e-09, No Iterations 3
DILUPBiCG:  Solving for T, Initial residual = 4.47545e-06, Final residual = 4.81366e-09, No Iterations 2
DILUPBiCG:  Solving for T, Initial residual = 5.45295e-07, Final residual = 7.02314e-10, No Iterations 2
 T goes from min(T) [0 0 0 0 0 0 0] 7.64858e-21 to max(T) [0 0 0 0 0 0 0] 0.954992

ExecutionTime = 30.31 s  ClockTime = 544 s

Time = 0.43
Courant Number mean: 0.851835 max: 2.06603
DILUPBiCG:  Solving for T, Initial residual = 0.0143384, Final residual = 9.74945e-10, No Iterations 5
DILUPBiCG:  Solving for T, Initial residual = 0.000180491, Final residual = 4.97205e-09, No Iterations 3
DILUPBiCG:  Solving for T, Initial residual = 4.55699e-06, Final residual = 4.99806e-09, No Iterations 2
DILUPBiCG:  Solving for T, Initial residual = 5.40717e-07, Final residual = 6.60107e-10, No Iterations 2
 T goes from min(T) [0 0 0 0 0 0 0] 8.02278e-21 to max(T) [0 0 0 0 0 0 0] 0.954574

ExecutionTime = 30.83 s  ClockTime = 552 s

Time = 0.44
Courant Number mean: 0.848878 max: 2.06693
DILUPBiCG:  Solving for T, Initial residual = 0.0143832, Final residual = 8.99493e-10, No Iterations 5
DILUPBiCG:  Solving for T, Initial residual = 0.000183258, Final residual = 5.40517e-09, No Iterations 3
DILUPBiCG:  Solving for T, Initial residual = 4.64049e-06, Final residual = 5.18711e-09, No Iterations 2
DILUPBiCG:  Solving for T, Initial residual = 5.35184e-07, Final residual = 6.24775e-10, No Iterations 2
 T goes from min(T) [0 0 0 0 0 0 0] 7.70141e-21 to max(T) [0 0 0 0 0 0 0] 0.954603

ExecutionTime = 31.35 s  ClockTime = 560 s

Time = 0.45
Courant Number mean: 0.845902 max: 2.06739
DILUPBiCG:  Solving for T, Initial residual = 0.0144286, Final residual = 9.52842e-10, No Iterations 5
DILUPBiCG:  Solving for T, Initial residual = 0.00018618, Final residual = 5.84907e-09, No Iterations 3
DILUPBiCG:  Solving for T, Initial residual = 4.72095e-06, Final residual = 5.38961e-09, No Iterations 2
DILUPBiCG:  Solving for T, Initial residual = 5.29973e-07, Final residual = 5.95923e-10, No Iterations 2
 T goes from min(T) [0 0 0 0 0 0 0] 8.01559e-21 to max(T) [0 0 0 0 0 0 0] 0.954154

ExecutionTime = 31.9 s  ClockTime = 568 s

Time = 0.46
Courant Number mean: 0.84289 max: 2.06826
DILUPBiCG:  Solving for T, Initial residual = 0.0144795, Final residual = 1.05194e-09, No Iterations 5
DILUPBiCG:  Solving for T, Initial residual = 0.000189059, Final residual = 6.29824e-09, No Iterations 3
DILUPBiCG:  Solving for T, Initial residual = 4.80434e-06, Final residual = 5.60164e-09, No Iterations 2
DILUPBiCG:  Solving for T, Initial residual = 5.23802e-07, Final residual = 5.72762e-10, No Iterations 2
 T goes from min(T) [0 0 0 0 0 0 0] 7.76515e-21 to max(T) [0 0 0 0 0 0 0] 0.953638

ExecutionTime = 32.54 s  ClockTime = 578 s

Time = 0.47
Courant Number mean: 0.839868 max: 2.06879
DILUPBiCG:  Solving for T, Initial residual = 0.0145297, Final residual = 1.17545e-09, No Iterations 5
DILUPBiCG:  Solving for T, Initial residual = 0.000191946, Final residual = 6.75291e-09, No Iterations 3
DILUPBiCG:  Solving for T, Initial residual = 4.88333e-06, Final residual = 5.82042e-09, No Iterations 2
DILUPBiCG:  Solving for T, Initial residual = 5.19071e-07, Final residual = 5.58347e-10, No Iterations 2
 T goes from min(T) [0 0 0 0 0 0 0] 8.0228e-21 to max(T) [0 0 0 0 0 0 0] 0.953804

ExecutionTime = 33.09 s  ClockTime = 586 s

Time = 0.48
Courant Number mean: 0.836809 max: 2.06878
DILUPBiCG:  Solving for T, Initial residual = 0.0145827, Final residual = 1.3263e-09, No Iterations 5
DILUPBiCG:  Solving for T, Initial residual = 0.000195007, Final residual = 7.19877e-09, No Iterations 3
DILUPBiCG:  Solving for T, Initial residual = 4.98182e-06, Final residual = 6.06878e-09, No Iterations 2
DILUPBiCG:  Solving for T, Initial residual = 5.12611e-07, Final residual = 5.47545e-10, No Iterations 2
 T goes from min(T) [0 0 0 0 0 0 0] 7.83975e-21 to max(T) [0 0 0 0 0 0 0] 0.954566

ExecutionTime = 33.61 s  ClockTime = 594 s

Time = 0.49
Courant Number mean: 0.833737 max: 2.06925
DILUPBiCG:  Solving for T, Initial residual = 0.0146383, Final residual = 1.5114e-09, No Iterations 5
DILUPBiCG:  Solving for T, Initial residual = 0.000197969, Final residual = 7.63464e-09, No Iterations 3
DILUPBiCG:  Solving for T, Initial residual = 5.07873e-06, Final residual = 6.33321e-09, No Iterations 2
DILUPBiCG:  Solving for T, Initial residual = 5.05688e-07, Final residual = 5.43388e-10, No Iterations 2
 T goes from min(T) [0 0 0 0 0 0 0] 8.0444e-21 to max(T) [0 0 0 0 0 0 0] 0.953745

ExecutionTime = 34.15 s  ClockTime = 602 s

Time = 0.5
Courant Number mean: 0.830636 max: 2.0694
DILUPBiCG:  Solving for T, Initial residual = 0.0146899, Final residual = 1.74333e-09, No Iterations 5
DILUPBiCG:  Solving for T, Initial residual = 0.000201039, Final residual = 8.07562e-09, No Iterations 3
DILUPBiCG:  Solving for T, Initial residual = 5.18522e-06, Final residual = 6.62275e-09, No Iterations 2
DILUPBiCG:  Solving for T, Initial residual = 5.01147e-07, Final residual = 5.43633e-10, No Iterations 2
 T goes from min(T) [0 0 0 0 0 0 0] 7.92518e-21 to max(T) [0 0 0 0 0 0 0] 0.954354

ExecutionTime = 34.67 s  ClockTime = 610 s

Time = 0.51
Courant Number mean: 0.82752 max: 2.06901
DILUPBiCG:  Solving for T, Initial residual = 0.0147492, Final residual = 2.04264e-09, No Iterations 5
DILUPBiCG:  Solving for T, Initial residual = 0.000204208, Final residual = 8.51503e-09, No Iterations 3
DILUPBiCG:  Solving for T, Initial residual = 5.29842e-06, Final residual = 6.9347e-09, No Iterations 2
DILUPBiCG:  Solving for T, Initial residual = 4.97132e-07, Final residual = 5.49983e-10, No Iterations 2
 T goes from min(T) [0 0 0 0 0 0 0] 8.08035e-21 to max(T) [0 0 0 0 0 0 0] 0.953723

ExecutionTime = 35.2 s  ClockTime = 617 s

Time = 0.52
Courant Number mean: 0.824378 max: 2.06896
DILUPBiCG:  Solving for T, Initial residual = 0.0148099, Final residual = 2.44677e-09, No Iterations 5
DILUPBiCG:  Solving for T, Initial residual = 0.000207387, Final residual = 8.96921e-09, No Iterations 3
DILUPBiCG:  Solving for T, Initial residual = 5.40964e-06, Final residual = 7.26462e-09, No Iterations 2
DILUPBiCG:  Solving for T, Initial residual = 4.939e-07, Final residual = 5.59292e-10, No Iterations 2
 T goes from min(T) [0 0 0 0 0 0 0] 8.02133e-21 to max(T) [0 0 0 0 0 0 0] 0.953228

ExecutionTime = 35.72 s  ClockTime = 625 s

Time = 0.53
Courant Number mean: 0.821221 max: 2.06874
DILUPBiCG:  Solving for T, Initial residual = 0.0148636, Final residual = 3.01929e-09, No Iterations 5
DILUPBiCG:  Solving for T, Initial residual = 0.000210603, Final residual = 9.45158e-09, No Iterations 3
DILUPBiCG:  Solving for T, Initial residual = 5.53556e-06, Final residual = 7.62349e-09, No Iterations 2
DILUPBiCG:  Solving for T, Initial residual = 4.91965e-07, Final residual = 5.73574e-10, No Iterations 2
 T goes from min(T) [0 0 0 0 0 0 0] 8.13057e-21 to max(T) [0 0 0 0 0 0 0] 0.953338

ExecutionTime = 36.3 s  ClockTime = 634 s

Time = 0.54
Courant Number mean: 0.818043 max: 2.06846
DILUPBiCG:  Solving for T, Initial residual = 0.0149288, Final residual = 3.89695e-09, No Iterations 5
DILUPBiCG:  Solving for T, Initial residual = 0.000214013, Final residual = 9.98639e-09, No Iterations 3
DILUPBiCG:  Solving for T, Initial residual = 5.67618e-06, Final residual = 8.01143e-09, No Iterations 2
DILUPBiCG:  Solving for T, Initial residual = 4.91039e-07, Final residual = 5.90918e-10, No Iterations 2
 T goes from min(T) [0 0 0 0 0 0 0] 8.12803e-21 to max(T) [0 0 0 0 0 0 0] 0.953833

ExecutionTime = 36.93 s  ClockTime = 644 s

Time = 0.55
Courant Number mean: 0.814841 max: 2.06799
DILUPBiCG:  Solving for T, Initial residual = 0.0149909, Final residual = 5.40958e-09, No Iterations 5
DILUPBiCG:  Solving for T, Initial residual = 0.000217443, Final residual = 9.30041e-10, No Iterations 4
DILUPBiCG:  Solving for T, Initial residual = 5.82745e-06, Final residual = 8.44198e-09, No Iterations 2
DILUPBiCG:  Solving for T, Initial residual = 4.90274e-07, Final residual = 6.12779e-10, No Iterations 2
 T goes from min(T) [0 0 0 0 0 0 0] 8.1949e-21 to max(T) [0 0 0 0 0 0 0] 0.953524

ExecutionTime = 37.46 s  ClockTime = 651 s

Time = 0.56
Courant Number mean: 0.811631 max: 2.06701
DILUPBiCG:  Solving for T, Initial residual = 0.0150508, Final residual = 8.60205e-09, No Iterations 5
DILUPBiCG:  Solving for T, Initial residual = 0.000220965, Final residual = 7.89446e-10, No Iterations 4
DILUPBiCG:  Solving for T, Initial residual = 5.98757e-06, Final residual = 8.89301e-09, No Iterations 2
DILUPBiCG:  Solving for T, Initial residual = 4.91634e-07, Final residual = 6.37345e-10, No Iterations 2
 T goes from min(T) [0 0 0 0 0 0 0] 8.24507e-21 to max(T) [0 0 0 0 0 0 0] 0.953459

ExecutionTime = 37.99 s  ClockTime = 659 s

Time = 0.57
Courant Number mean: 0.808394 max: 2.06671
DILUPBiCG:  Solving for T, Initial residual = 0.0151133, Final residual = 6.12738e-11, No Iterations 6
DILUPBiCG:  Solving for T, Initial residual = 0.000224719, Final residual = 7.23053e-10, No Iterations 4
DILUPBiCG:  Solving for T, Initial residual = 6.15705e-06, Final residual = 9.37578e-09, No Iterations 2
DILUPBiCG:  Solving for T, Initial residual = 4.95391e-07, Final residual = 6.65747e-10, No Iterations 2
 T goes from min(T) [0 0 0 0 0 0 0] 8.27309e-21 to max(T) [0 0 0 0 0 0 0] 0.952691

ExecutionTime = 38.52 s  ClockTime = 667 s

Time = 0.58
Courant Number mean: 0.805151 max: 2.06587
DILUPBiCG:  Solving for T, Initial residual = 0.0151817, Final residual = 6.2498e-11, No Iterations 6
DILUPBiCG:  Solving for T, Initial residual = 0.000228518, Final residual = 6.94809e-10, No Iterations 4
DILUPBiCG:  Solving for T, Initial residual = 6.3423e-06, Final residual = 9.88052e-09, No Iterations 2
DILUPBiCG:  Solving for T, Initial residual = 5.01909e-07, Final residual = 6.99865e-10, No Iterations 2
 T goes from min(T) [0 0 0 0 0 0 0] 8.37217e-21 to max(T) [0 0 0 0 0 0 0] 0.952437

ExecutionTime = 39.05 s  ClockTime = 675 s

Time = 0.59
Courant Number mean: 0.801882 max: 2.0645
DILUPBiCG:  Solving for T, Initial residual = 0.015245, Final residual = 6.35363e-11, No Iterations 6
DILUPBiCG:  Solving for T, Initial residual = 0.000232436, Final residual = 6.88515e-10, No Iterations 4
DILUPBiCG:  Solving for T, Initial residual = 6.54332e-06, Final residual = 3.96056e-09, No Iterations 3
DILUPBiCG:  Solving for T, Initial residual = 5.08635e-07, Final residual = 7.63287e-10, No Iterations 2
 T goes from min(T) [0 0 0 0 0 0 0] 8.36482e-21 to max(T) [0 0 0 0 0 0 0] 0.950769

ExecutionTime = 39.57 s  ClockTime = 683 s

Time = 0.6
Courant Number mean: 0.79861 max: 2.06369
DILUPBiCG:  Solving for T, Initial residual = 0.0153084, Final residual = 8.01412e-09, No Iterations 5
DILUPBiCG:  Solving for T, Initial residual = 0.000236557, Final residual = 6.92368e-10, No Iterations 4
DILUPBiCG:  Solving for T, Initial residual = 6.75118e-06, Final residual = 2.62071e-11, No Iterations 4
DILUPBiCG:  Solving for T, Initial residual = 5.17612e-07, Final residual = 8.53936e-10, No Iterations 2
 T goes from min(T) [0 0 0 0 0 0 0] 8.50914e-21 to max(T) [0 0 0 0 0 0 0] 0.952042

ExecutionTime = 40.16 s  ClockTime = 692 s

Time = 0.61
Courant Number mean: 0.795311 max: 2.06248
DILUPBiCG:  Solving for T, Initial residual = 0.0153771, Final residual = 5.76621e-09, No Iterations 5
DILUPBiCG:  Solving for T, Initial residual = 0.000240681, Final residual = 7.03697e-10, No Iterations 4
DILUPBiCG:  Solving for T, Initial residual = 6.97258e-06, Final residual = 3.29038e-09, No Iterations 3
DILUPBiCG:  Solving for T, Initial residual = 5.28637e-07, Final residual = 9.57683e-10, No Iterations 2
 T goes from min(T) [0 0 0 0 0 0 0] 8.46984e-21 to max(T) [0 0 0 0 0 0 0] 0.952493

ExecutionTime = 40.69 s  ClockTime = 700 s

Time = 0.62
Courant Number mean: 0.792015 max: 2.06104
DILUPBiCG:  Solving for T, Initial residual = 0.0154473, Final residual = 4.67647e-09, No Iterations 5
DILUPBiCG:  Solving for T, Initial residual = 0.000245123, Final residual = 7.18427e-10, No Iterations 4
DILUPBiCG:  Solving for T, Initial residual = 7.21802e-06, Final residual = 2.02007e-09, No Iterations 3
DILUPBiCG:  Solving for T, Initial residual = 5.40413e-07, Final residual = 1.08225e-09, No Iterations 2
 T goes from min(T) [0 0 0 0 0 0 0] 8.65573e-21 to max(T) [0 0 0 0 0 0 0] 0.952613

ExecutionTime = 41.22 s  ClockTime = 708 s

Time = 0.63
Courant Number mean: 0.788692 max: 2.05961
DILUPBiCG:  Solving for T, Initial residual = 0.0155155, Final residual = 4.072e-09, No Iterations 5
DILUPBiCG:  Solving for T, Initial residual = 0.000249568, Final residual = 7.35389e-10, No Iterations 4
DILUPBiCG:  Solving for T, Initial residual = 7.46553e-06, Final residual = 1.56962e-09, No Iterations 3
DILUPBiCG:  Solving for T, Initial residual = 5.56696e-07, Final residual = 1.2221e-09, No Iterations 2
 T goes from min(T) [0 0 0 0 0 0 0] 8.58793e-21 to max(T) [0 0 0 0 0 0 0] 0.952534

ExecutionTime = 41.74 s  ClockTime = 716 s

Time = 0.64
Courant Number mean: 0.78537 max: 2.05784
DILUPBiCG:  Solving for T, Initial residual = 0.0155819, Final residual = 3.68026e-09, No Iterations 5
DILUPBiCG:  Solving for T, Initial residual = 0.000254241, Final residual = 7.54105e-10, No Iterations 4
DILUPBiCG:  Solving for T, Initial residual = 7.74649e-06, Final residual = 1.35788e-09, No Iterations 3
DILUPBiCG:  Solving for T, Initial residual = 5.73211e-07, Final residual = 1.3769e-09, No Iterations 2
 T goes from min(T) [0 0 0 0 0 0 0] 8.81181e-21 to max(T) [0 0 0 0 0 0 0] 0.952454

ExecutionTime = 42.3 s  ClockTime = 724 s

Time = 0.65
Courant Number mean: 0.78203 max: 2.05657
DILUPBiCG:  Solving for T, Initial residual = 0.0156587, Final residual = 3.41556e-09, No Iterations 5
DILUPBiCG:  Solving for T, Initial residual = 0.000259062, Final residual = 7.73526e-10, No Iterations 4
DILUPBiCG:  Solving for T, Initial residual = 8.03262e-06, Final residual = 1.24373e-09, No Iterations 3
DILUPBiCG:  Solving for T, Initial residual = 5.94547e-07, Final residual = 1.55418e-09, No Iterations 2
 T goes from min(T) [0 0 0 0 0 0 0] 8.71911e-21 to max(T) [0 0 0 0 0 0 0] 0.952343

ExecutionTime = 42.82 s  ClockTime = 732 s

Time = 0.66
Courant Number mean: 0.778679 max: 2.05477
DILUPBiCG:  Solving for T, Initial residual = 0.0157303, Final residual = 3.215e-09, No Iterations 5
DILUPBiCG:  Solving for T, Initial residual = 0.000263965, Final residual = 7.93314e-10, No Iterations 4
DILUPBiCG:  Solving for T, Initial residual = 8.34396e-06, Final residual = 1.1836e-09, No Iterations 3
DILUPBiCG:  Solving for T, Initial residual = 6.15741e-07, Final residual = 1.75425e-09, No Iterations 2
 T goes from min(T) [0 0 0 0 0 0 0] 8.97747e-21 to max(T) [0 0 0 0 0 0 0] 0.952155

ExecutionTime = 43.34 s  ClockTime = 739 s

Time = 0.67
Courant Number mean: 0.775327 max: 2.05248
DILUPBiCG:  Solving for T, Initial residual = 0.0158036, Final residual = 3.06567e-09, No Iterations 5
DILUPBiCG:  Solving for T, Initial residual = 0.000269119, Final residual = 8.13178e-10, No Iterations 4
DILUPBiCG:  Solving for T, Initial residual = 8.65236e-06, Final residual = 1.15381e-09, No Iterations 3
DILUPBiCG:  Solving for T, Initial residual = 6.41706e-07, Final residual = 1.98001e-09, No Iterations 2
 T goes from min(T) [0 0 0 0 0 0 0] -5.40782e-11 to max(T) [0 0 0 0 0 0 0] 0.952091

ExecutionTime = 43.87 s  ClockTime = 746 s

Time = 0.68
Courant Number mean: 0.771956 max: 2.05083
DILUPBiCG:  Solving for T, Initial residual = 0.0158781, Final residual = 2.96506e-09, No Iterations 5
DILUPBiCG:  Solving for T, Initial residual = 0.000274329, Final residual = 8.33208e-10, No Iterations 4
DILUPBiCG:  Solving for T, Initial residual = 8.9957e-06, Final residual = 1.14973e-09, No Iterations 3
DILUPBiCG:  Solving for T, Initial residual = 6.69733e-07, Final residual = 2.23429e-09, No Iterations 2
 T goes from min(T) [0 0 0 0 0 0 0] -8.67828e-10 to max(T) [0 0 0 0 0 0 0] 0.952129

ExecutionTime = 44.39 s  ClockTime = 753 s

Time = 0.69
Courant Number mean: 0.768587 max: 2.04866
DILUPBiCG:  Solving for T, Initial residual = 0.0159554, Final residual = 2.92319e-09, No Iterations 5
DILUPBiCG:  Solving for T, Initial residual = 0.000279843, Final residual = 8.50998e-10, No Iterations 4
DILUPBiCG:  Solving for T, Initial residual = 9.34425e-06, Final residual = 1.1621e-09, No Iterations 3
DILUPBiCG:  Solving for T, Initial residual = 7.01706e-07, Final residual = 2.51137e-09, No Iterations 2
 T goes from min(T) [0 0 0 0 0 0 0] -1.61922e-09 to max(T) [0 0 0 0 0 0 0] 0.952043

ExecutionTime = 44.91 s  ClockTime = 760 s

Time = 0.7
Courant Number mean: 0.765201 max: 2.0461
DILUPBiCG:  Solving for T, Initial residual = 0.0160334, Final residual = 2.96385e-09, No Iterations 5
DILUPBiCG:  Solving for T, Initial residual = 0.000285584, Final residual = 8.67395e-10, No Iterations 4
DILUPBiCG:  Solving for T, Initial residual = 9.71663e-06, Final residual = 1.19556e-09, No Iterations 3
DILUPBiCG:  Solving for T, Initial residual = 7.37219e-07, Final residual = 2.80184e-09, No Iterations 2
 T goes from min(T) [0 0 0 0 0 0 0] -2.20371e-09 to max(T) [0 0 0 0 0 0 0] 0.951752

ExecutionTime = 45.43 s  ClockTime = 767 s

Time = 0.71
Courant Number mean: 0.761819 max: 2.04383
DILUPBiCG:  Solving for T, Initial residual = 0.0161177, Final residual = 3.09152e-09, No Iterations 5
DILUPBiCG:  Solving for T, Initial residual = 0.000291268, Final residual = 8.81685e-10, No Iterations 4
DILUPBiCG:  Solving for T, Initial residual = 1.01085e-05, Final residual = 1.25047e-09, No Iterations 3
DILUPBiCG:  Solving for T, Initial residual = 7.78325e-07, Final residual = 3.08952e-09, No Iterations 2
 T goes from min(T) [0 0 0 0 0 0 0] -5.34013e-09 to max(T) [0 0 0 0 0 0 0] 0.951468

ExecutionTime = 45.95 s  ClockTime = 773 s

Time = 0.72
Courant Number mean: 0.758425 max: 2.04129
DILUPBiCG:  Solving for T, Initial residual = 0.0161989, Final residual = 3.2727e-09, No Iterations 5
DILUPBiCG:  Solving for T, Initial residual = 0.000297396, Final residual = 8.9479e-10, No Iterations 4
DILUPBiCG:  Solving for T, Initial residual = 1.05253e-05, Final residual = 1.33302e-09, No Iterations 3
DILUPBiCG:  Solving for T, Initial residual = 8.24033e-07, Final residual = 3.33534e-09, No Iterations 2
 T goes from min(T) [0 0 0 0 0 0 0] -1.36133e-08 to max(T) [0 0 0 0 0 0 0] 0.951427

ExecutionTime = 46.45 s  ClockTime = 780 s

Time = 0.73
Courant Number mean: 0.755035 max: 2.03893
DILUPBiCG:  Solving for T, Initial residual = 0.0162798, Final residual = 3.41149e-09, No Iterations 5
DILUPBiCG:  Solving for T, Initial residual = 0.00030343, Final residual = 9.09171e-10, No Iterations 4
DILUPBiCG:  Solving for T, Initial residual = 1.09823e-05, Final residual = 1.44288e-09, No Iterations 3
DILUPBiCG:  Solving for T, Initial residual = 8.765e-07, Final residual = 3.25189e-09, No Iterations 2
 T goes from min(T) [0 0 0 0 0 0 0] -2.19451e-08 to max(T) [0 0 0 0 0 0 0] 0.951056

ExecutionTime = 47.05 s  ClockTime = 788 s

Time = 0.74
Courant Number mean: 0.751633 max: 2.0362
DILUPBiCG:  Solving for T, Initial residual = 0.0163664, Final residual = 3.40494e-09, No Iterations 5
DILUPBiCG:  Solving for T, Initial residual = 0.000309876, Final residual = 9.16444e-10, No Iterations 4
DILUPBiCG:  Solving for T, Initial residual = 1.14498e-05, Final residual = 1.57644e-09, No Iterations 3
DILUPBiCG:  Solving for T, Initial residual = 9.34903e-07, Final residual = 4.4928e-09, No Iterations 2
 T goes from min(T) [0 0 0 0 0 0 0] -2.82079e-08 to max(T) [0 0 0 0 0 0 0] 0.950491

ExecutionTime = 47.57 s  ClockTime = 794 s

Time = 0.75
Courant Number mean: 0.748236 max: 2.03309
DILUPBiCG:  Solving for T, Initial residual = 0.0164497, Final residual = 3.22329e-09, No Iterations 5
DILUPBiCG:  Solving for T, Initial residual = 0.000315886, Final residual = 9.18443e-10, No Iterations 4
DILUPBiCG:  Solving for T, Initial residual = 1.19664e-05, Final residual = 1.72096e-09, No Iterations 3
DILUPBiCG:  Solving for T, Initial residual = 9.99752e-07, Final residual = 4.47248e-09, No Iterations 2
 T goes from min(T) [0 0 0 0 0 0 0] -3.17554e-08 to max(T) [0 0 0 0 0 0 0] 0.950335

ExecutionTime = 48.08 s  ClockTime = 801 s

Time = 0.76
Courant Number mean: 0.744833 max: 2.03051
DILUPBiCG:  Solving for T, Initial residual = 0.016543, Final residual = 2.91571e-09, No Iterations 5
DILUPBiCG:  Solving for T, Initial residual = 0.000321965, Final residual = 9.14215e-10, No Iterations 4
DILUPBiCG:  Solving for T, Initial residual = 1.24997e-05, Final residual = 1.88734e-09, No Iterations 3
DILUPBiCG:  Solving for T, Initial residual = 1.07127e-06, Final residual = 4.6276e-09, No Iterations 2
 T goes from min(T) [0 0 0 0 0 0 0] -3.22905e-08 to max(T) [0 0 0 0 0 0 0] 0.950811

ExecutionTime = 48.6 s  ClockTime = 808 s

Time = 0.77
Courant Number mean: 0.741434 max: 2.02743
DILUPBiCG:  Solving for T, Initial residual = 0.0166304, Final residual = 2.55683e-09, No Iterations 5
DILUPBiCG:  Solving for T, Initial residual = 0.00032758, Final residual = 9.02191e-10, No Iterations 4
DILUPBiCG:  Solving for T, Initial residual = 1.30558e-05, Final residual = 2.1543e-09, No Iterations 3
DILUPBiCG:  Solving for T, Initial residual = 1.14673e-06, Final residual = 4.79598e-09, No Iterations 2
 T goes from min(T) [0 0 0 0 0 0 0] -3.31779e-08 to max(T) [0 0 0 0 0 0 0] 0.950666

ExecutionTime = 49.15 s  ClockTime = 815 s

Time = 0.78
Courant Number mean: 0.738035 max: 2.02384
DILUPBiCG:  Solving for T, Initial residual = 0.0167287, Final residual = 2.2075e-09, No Iterations 5
DILUPBiCG:  Solving for T, Initial residual = 0.000333426, Final residual = 8.82357e-10, No Iterations 4
DILUPBiCG:  Solving for T, Initial residual = 1.36222e-05, Final residual = 2.86733e-09, No Iterations 3
DILUPBiCG:  Solving for T, Initial residual = 1.22488e-06, Final residual = 4.97464e-09, No Iterations 2
 T goes from min(T) [0 0 0 0 0 0 0] -4.28876e-08 to max(T) [0 0 0 0 0 0 0] 0.951463

ExecutionTime = 49.68 s  ClockTime = 822 s

Time = 0.79
Courant Number mean: 0.734635 max: 2.02087
DILUPBiCG:  Solving for T, Initial residual = 0.0168161, Final residual = 1.92099e-09, No Iterations 5
DILUPBiCG:  Solving for T, Initial residual = 0.000338924, Final residual = 8.57211e-10, No Iterations 4
DILUPBiCG:  Solving for T, Initial residual = 1.41921e-05, Final residual = 9.07031e-09, No Iterations 3
DILUPBiCG:  Solving for T, Initial residual = 1.30245e-06, Final residual = 5.17869e-09, No Iterations 2
 T goes from min(T) [0 0 0 0 0 0 0] -4.99788e-08 to max(T) [0 0 0 0 0 0 0] 0.95141

ExecutionTime = 50.2 s  ClockTime = 829 s

Time = 0.8
Courant Number mean: 0.731243 max: 2.01743
DILUPBiCG:  Solving for T, Initial residual = 0.0169134, Final residual = 1.74646e-09, No Iterations 5
DILUPBiCG:  Solving for T, Initial residual = 0.000344619, Final residual = 8.29438e-10, No Iterations 4
DILUPBiCG:  Solving for T, Initial residual = 1.47411e-05, Final residual = 8.29027e-11, No Iterations 4
DILUPBiCG:  Solving for T, Initial residual = 1.38606e-06, Final residual = 5.46036e-09, No Iterations 2
 T goes from min(T) [0 0 0 0 0 0 0] -6.17089e-08 to max(T) [0 0 0 0 0 0 0] 0.951665

ExecutionTime = 50.75 s  ClockTime = 836 s

Time = 0.81
Courant Number mean: 0.727848 max: 2.01401
DILUPBiCG:  Solving for T, Initial residual = 0.0170065, Final residual = 1.79435e-09, No Iterations 5
DILUPBiCG:  Solving for T, Initial residual = 0.000349985, Final residual = 8.00046e-10, No Iterations 4
DILUPBiCG:  Solving for T, Initial residual = 1.52824e-05, Final residual = 6.46737e-09, No Iterations 3
DILUPBiCG:  Solving for T, Initial residual = 1.46983e-06, Final residual = 5.78093e-09, No Iterations 2
 T goes from min(T) [0 0 0 0 0 0 0] -7.16227e-08 to max(T) [0 0 0 0 0 0 0] 0.95159

ExecutionTime = 51.27 s  ClockTime = 842 s

Time = 0.82
Courant Number mean: 0.724468 max: 2.0104
DILUPBiCG:  Solving for T, Initial residual = 0.0171118, Final residual = 2.39728e-09, No Iterations 5
DILUPBiCG:  Solving for T, Initial residual = 0.000355375, Final residual = 7.75888e-10, No Iterations 4
DILUPBiCG:  Solving for T, Initial residual = 1.57876e-05, Final residual = 5.12064e-09, No Iterations 3
DILUPBiCG:  Solving for T, Initial residual = 1.55061e-06, Final residual = 6.11177e-09, No Iterations 2
 T goes from min(T) [0 0 0 0 0 0 0] -8.60054e-08 to max(T) [0 0 0 0 0 0 0] 0.951472

ExecutionTime = 51.79 s  ClockTime = 849 s

Time = 0.83
Courant Number mean: 0.721087 max: 2.00647
DILUPBiCG:  Solving for T, Initial residual = 0.017212, Final residual = 4.12015e-09, No Iterations 5
DILUPBiCG:  Solving for T, Initial residual = 0.000360446, Final residual = 7.48839e-10, No Iterations 4
DILUPBiCG:  Solving for T, Initial residual = 1.62807e-05, Final residual = 4.70482e-09, No Iterations 3
DILUPBiCG:  Solving for T, Initial residual = 1.63531e-06, Final residual = 6.41739e-09, No Iterations 2
 T goes from min(T) [0 0 0 0 0 0 0] -1.00605e-07 to max(T) [0 0 0 0 0 0 0] 0.951238

ExecutionTime = 52.34 s  ClockTime = 856 s

Time = 0.84
Courant Number mean: 0.717718 max: 2.00301
DILUPBiCG:  Solving for T, Initial residual = 0.0173182, Final residual = 5.59784e-09, No Iterations 5
DILUPBiCG:  Solving for T, Initial residual = 0.000365645, Final residual = 7.22338e-10, No Iterations 4
DILUPBiCG:  Solving for T, Initial residual = 1.67498e-05, Final residual = 4.51486e-09, No Iterations 3
DILUPBiCG:  Solving for T, Initial residual = 1.71996e-06, Final residual = 6.68661e-09, No Iterations 2
 T goes from min(T) [0 0 0 0 0 0 0] -1.13815e-07 to max(T) [0 0 0 0 0 0 0] 0.950906

ExecutionTime = 52.86 s  ClockTime = 863 s

Time = 0.85
Courant Number mean: 0.714356 max: 1.99905
DILUPBiCG:  Solving for T, Initial residual = 0.0174208, Final residual = 5.03387e-09, No Iterations 5
DILUPBiCG:  Solving for T, Initial residual = 0.000369824, Final residual = 7.35466e-10, No Iterations 4
DILUPBiCG:  Solving for T, Initial residual = 1.72475e-05, Final residual = 4.31433e-09, No Iterations 3
DILUPBiCG:  Solving for T, Initial residual = 1.8054e-06, Final residual = 6.93096e-09, No Iterations 2
 T goes from min(T) [0 0 0 0 0 0 0] -1.32365e-07 to max(T) [0 0 0 0 0 0 0] 0.951235

ExecutionTime = 53.46 s  ClockTime = 871 s

Time = 0.86
Courant Number mean: 0.711006 max: 1.99462
DILUPBiCG:  Solving for T, Initial residual = 0.0175244, Final residual = 3.68104e-09, No Iterations 5
DILUPBiCG:  Solving for T, Initial residual = 0.000374208, Final residual = 7.56505e-10, No Iterations 4
DILUPBiCG:  Solving for T, Initial residual = 1.77225e-05, Final residual = 4.03647e-09, No Iterations 3
DILUPBiCG:  Solving for T, Initial residual = 1.90251e-06, Final residual = 7.18054e-09, No Iterations 2
 T goes from min(T) [0 0 0 0 0 0 0] -1.48577e-07 to max(T) [0 0 0 0 0 0 0] 0.950232

ExecutionTime = 54 s  ClockTime = 878 s

Time = 0.87
Courant Number mean: 0.707672 max: 1.99081
DILUPBiCG:  Solving for T, Initial residual = 0.0176322, Final residual = 2.51648e-09, No Iterations 5
DILUPBiCG:  Solving for T, Initial residual = 0.000377423, Final residual = 7.80988e-10, No Iterations 4
DILUPBiCG:  Solving for T, Initial residual = 1.81767e-05, Final residual = 3.74275e-09, No Iterations 3
DILUPBiCG:  Solving for T, Initial residual = 2.00392e-06, Final residual = 7.46128e-09, No Iterations 2
 T goes from min(T) [0 0 0 0 0 0 0] -1.7574e-07 to max(T) [0 0 0 0 0 0 0] 0.951518

ExecutionTime = 54.52 s  ClockTime = 885 s

Time = 0.88
Courant Number mean: 0.704346 max: 1.98652
DILUPBiCG:  Solving for T, Initial residual = 0.0177402, Final residual = 1.70788e-09, No Iterations 5
DILUPBiCG:  Solving for T, Initial residual = 0.000380805, Final residual = 8.05206e-10, No Iterations 4
DILUPBiCG:  Solving for T, Initial residual = 1.86507e-05, Final residual = 3.59045e-09, No Iterations 3
DILUPBiCG:  Solving for T, Initial residual = 2.10136e-06, Final residual = 7.81619e-09, No Iterations 2
 T goes from min(T) [0 0 0 0 0 0 0] -2.16046e-07 to max(T) [0 0 0 0 0 0 0] 0.950718

ExecutionTime = 55.04 s  ClockTime = 892 s

Time = 0.89
Courant Number mean: 0.701037 max: 1.98214
DILUPBiCG:  Solving for T, Initial residual = 0.0178535, Final residual = 1.1417e-09, No Iterations 5
DILUPBiCG:  Solving for T, Initial residual = 0.000383761, Final residual = 8.38793e-10, No Iterations 4
DILUPBiCG:  Solving for T, Initial residual = 1.90363e-05, Final residual = 3.66876e-09, No Iterations 3
DILUPBiCG:  Solving for T, Initial residual = 2.19473e-06, Final residual = 8.20014e-09, No Iterations 2
 T goes from min(T) [0 0 0 0 0 0 0] -2.52626e-07 to max(T) [0 0 0 0 0 0 0] 0.951121

ExecutionTime = 55.59 s  ClockTime = 899 s

Time = 0.9
Courant Number mean: 0.697743 max: 1.9777
DILUPBiCG:  Solving for T, Initial residual = 0.0179596, Final residual = 1.59785e-09, No Iterations 5
DILUPBiCG:  Solving for T, Initial residual = 0.000386501, Final residual = 8.96955e-10, No Iterations 4
DILUPBiCG:  Solving for T, Initial residual = 1.9436e-05, Final residual = 3.97236e-09, No Iterations 3
DILUPBiCG:  Solving for T, Initial residual = 2.27529e-06, Final residual = 8.5825e-09, No Iterations 2
 T goes from min(T) [0 0 0 0 0 0 0] -3.13116e-07 to max(T) [0 0 0 0 0 0 0] 0.950971

ExecutionTime = 56.11 s  ClockTime = 906 s

Time = 0.91
Courant Number mean: 0.69447 max: 1.97295
DILUPBiCG:  Solving for T, Initial residual = 0.0180771, Final residual = 4.91559e-09, No Iterations 5
DILUPBiCG:  Solving for T, Initial residual = 0.000389108, Final residual = 9.74633e-10, No Iterations 4
DILUPBiCG:  Solving for T, Initial residual = 1.97008e-05, Final residual = 4.48144e-09, No Iterations 3
DILUPBiCG:  Solving for T, Initial residual = 2.34848e-06, Final residual = 8.96314e-09, No Iterations 2
 T goes from min(T) [0 0 0 0 0 0 0] -3.60487e-07 to max(T) [0 0 0 0 0 0 0] 0.950057

ExecutionTime = 56.63 s  ClockTime = 912 s

Time = 0.92
Courant Number mean: 0.691215 max: 1.96866
DILUPBiCG:  Solving for T, Initial residual = 0.0181902, Final residual = 4.63158e-10, No Iterations 6
DILUPBiCG:  Solving for T, Initial residual = 0.000391381, Final residual = 1.03646e-09, No Iterations 4
DILUPBiCG:  Solving for T, Initial residual = 1.99843e-05, Final residual = 5.15849e-09, No Iterations 3
DILUPBiCG:  Solving for T, Initial residual = 2.41267e-06, Final residual = 9.23371e-09, No Iterations 2
 T goes from min(T) [0 0 0 0 0 0 0] -4.36389e-07 to max(T) [0 0 0 0 0 0 0] 0.950972

ExecutionTime = 57.17 s  ClockTime = 919 s

Time = 0.93
Courant Number mean: 0.687982 max: 1.9639
DILUPBiCG:  Solving for T, Initial residual = 0.0183052, Final residual = 8.41968e-09, No Iterations 5
DILUPBiCG:  Solving for T, Initial residual = 0.000394002, Final residual = 1.05932e-09, No Iterations 4
DILUPBiCG:  Solving for T, Initial residual = 2.01766e-05, Final residual = 5.96673e-09, No Iterations 3
DILUPBiCG:  Solving for T, Initial residual = 2.46512e-06, Final residual = 9.69422e-09, No Iterations 2
 T goes from min(T) [0 0 0 0 0 0 0] -5.02921e-07 to max(T) [0 0 0 0 0 0 0] 0.950858

ExecutionTime = 57.78 s  ClockTime = 927 s

Time = 0.94
Courant Number mean: 0.684773 max: 1.95868
DILUPBiCG:  Solving for T, Initial residual = 0.0184219, Final residual = 5.03711e-09, No Iterations 5
DILUPBiCG:  Solving for T, Initial residual = 0.000395982, Final residual = 1.0397e-09, No Iterations 4
DILUPBiCG:  Solving for T, Initial residual = 2.03482e-05, Final residual = 6.88988e-09, No Iterations 3
DILUPBiCG:  Solving for T, Initial residual = 2.51325e-06, Final residual = 1.51293e-09, No Iterations 3
 T goes from min(T) [0 0 0 0 0 0 0] -5.77106e-07 to max(T) [0 0 0 0 0 0 0] 0.950679

ExecutionTime = 58.32 s  ClockTime = 934 s

Time = 0.95
Courant Number mean: 0.681591 max: 1.95404
DILUPBiCG:  Solving for T, Initial residual = 0.0185372, Final residual = 3.95762e-09, No Iterations 5
DILUPBiCG:  Solving for T, Initial residual = 0.00039824, Final residual = 1.00208e-09, No Iterations 4
DILUPBiCG:  Solving for T, Initial residual = 2.04677e-05, Final residual = 8.02821e-09, No Iterations 3
DILUPBiCG:  Solving for T, Initial residual = 2.54342e-06, Final residual = 1.38172e-09, No Iterations 3
 T goes from min(T) [0 0 0 0 0 0 0] -6.66399e-07 to max(T) [0 0 0 0 0 0 0] 0.950659

ExecutionTime = 58.85 s  ClockTime = 941 s

Time = 0.96
Courant Number mean: 0.678432 max: 1.94897
DILUPBiCG:  Solving for T, Initial residual = 0.0186585, Final residual = 3.41572e-09, No Iterations 5
DILUPBiCG:  Solving for T, Initial residual = 0.000400012, Final residual = 9.54872e-10, No Iterations 4
DILUPBiCG:  Solving for T, Initial residual = 2.05148e-05, Final residual = 9.63904e-09, No Iterations 3
DILUPBiCG:  Solving for T, Initial residual = 2.57392e-06, Final residual = 1.26891e-09, No Iterations 3
 T goes from min(T) [0 0 0 0 0 0 0] -7.29554e-07 to max(T) [0 0 0 0 0 0 0] 0.950339

ExecutionTime = 59.37 s  ClockTime = 948 s

Time = 0.97
Courant Number mean: 0.675306 max: 1.94373
DILUPBiCG:  Solving for T, Initial residual = 0.0187727, Final residual = 3.04506e-09, No Iterations 5
DILUPBiCG:  Solving for T, Initial residual = 0.000401157, Final residual = 9.021e-10, No Iterations 4
DILUPBiCG:  Solving for T, Initial residual = 2.05813e-05, Final residual = 5.49035e-11, No Iterations 4
DILUPBiCG:  Solving for T, Initial residual = 2.59148e-06, Final residual = 1.15281e-09, No Iterations 3
 T goes from min(T) [0 0 0 0 0 0 0] -9.93438e-07 to max(T) [0 0 0 0 0 0 0] 0.950719

ExecutionTime = 59.9 s  ClockTime = 955 s

Time = 0.98
Courant Number mean: 0.67221 max: 1.93852
DILUPBiCG:  Solving for T, Initial residual = 0.0188948, Final residual = 2.746e-09, No Iterations 5
DILUPBiCG:  Solving for T, Initial residual = 0.00040239, Final residual = 8.44408e-10, No Iterations 4
DILUPBiCG:  Solving for T, Initial residual = 2.05664e-05, Final residual = 5.28258e-11, No Iterations 4
DILUPBiCG:  Solving for T, Initial residual = 2.59692e-06, Final residual = 1.05996e-09, No Iterations 3
 T goes from min(T) [0 0 0 0 0 0 0] -2.11976e-06 to max(T) [0 0 0 0 0 0 0] 0.948742

ExecutionTime = 60.42 s  ClockTime = 962 s

Time = 0.99
Courant Number mean: 0.669147 max: 1.93294
DILUPBiCG:  Solving for T, Initial residual = 0.0190143, Final residual = 2.493e-09, No Iterations 5
DILUPBiCG:  Solving for T, Initial residual = 0.000403525, Final residual = 7.86876e-10, No Iterations 4
DILUPBiCG:  Solving for T, Initial residual = 2.06044e-05, Final residual = 5.09213e-11, No Iterations 4
DILUPBiCG:  Solving for T, Initial residual = 2.6052e-06, Final residual = 9.80968e-10, No Iterations 3
 T goes from min(T) [0 0 0 0 0 0 0] -3.37378e-06 to max(T) [0 0 0 0 0 0 0] 0.9506

ExecutionTime = 60.95 s  ClockTime = 968 s

Time = 1
Courant Number mean: 0.666127 max: 1.92713
DILUPBiCG:  Solving for T, Initial residual = 0.0191352, Final residual = 2.28479e-09, No Iterations 5
DILUPBiCG:  Solving for T, Initial residual = 0.000404391, Final residual = 7.21757e-10, No Iterations 4
DILUPBiCG:  Solving for T, Initial residual = 2.06077e-05, Final residual = 4.92339e-11, No Iterations 4
DILUPBiCG:  Solving for T, Initial residual = 2.59872e-06, Final residual = 9.03647e-10, No Iterations 3
 T goes from min(T) [0 0 0 0 0 0 0] -4.82528e-06 to max(T) [0 0 0 0 0 0 0] 0.949329

ExecutionTime = 61.56 s  ClockTime = 976 s

Time = 1.01
Courant Number mean: 0.663137 max: 1.92087
DILUPBiCG:  Solving for T, Initial residual = 0.0192579, Final residual = 2.12587e-09, No Iterations 5
DILUPBiCG:  Solving for T, Initial residual = 0.000405348, Final residual = 6.51222e-10, No Iterations 4
DILUPBiCG:  Solving for T, Initial residual = 2.05623e-05, Final residual = 4.77562e-11, No Iterations 4
DILUPBiCG:  Solving for T, Initial residual = 2.59166e-06, Final residual = 8.41114e-10, No Iterations 3
 T goes from min(T) [0 0 0 0 0 0 0] -6.45012e-06 to max(T) [0 0 0 0 0 0 0] 0.9493

ExecutionTime = 62.11 s  ClockTime = 984 s

Time = 1.02
Courant Number mean: 0.6602 max: 1.91418
DILUPBiCG:  Solving for T, Initial residual = 0.0193758, Final residual = 9.68455e-09, No Iterations 4
DILUPBiCG:  Solving for T, Initial residual = 0.000406683, Final residual = 5.77945e-10, No Iterations 4
DILUPBiCG:  Solving for T, Initial residual = 2.05431e-05, Final residual = 7.80573e-09, No Iterations 3
DILUPBiCG:  Solving for T, Initial residual = 2.57617e-06, Final residual = 9.71003e-09, No Iterations 2
 T goes from min(T) [0 0 0 0 0 0 0] -8.20064e-06 to max(T) [0 0 0 0 0 0 0] 0.95017

ExecutionTime = 62.65 s  ClockTime = 991 s

Time = 1.03
Courant Number mean: 0.657304 max: 1.90707
DILUPBiCG:  Solving for T, Initial residual = 0.019506, Final residual = 9.11944e-09, No Iterations 4
DILUPBiCG:  Solving for T, Initial residual = 0.000407657, Final residual = 4.98162e-10, No Iterations 4
DILUPBiCG:  Solving for T, Initial residual = 2.04614e-05, Final residual = 5.16242e-09, No Iterations 3
DILUPBiCG:  Solving for T, Initial residual = 2.55816e-06, Final residual = 9.29374e-09, No Iterations 2
 T goes from min(T) [0 0 0 0 0 0 0] -1.00086e-05 to max(T) [0 0 0 0 0 0 0] 0.94957

ExecutionTime = 63.18 s  ClockTime = 998 s

Time = 1.04
Courant Number mean: 0.654463 max: 1.89954
DILUPBiCG:  Solving for T, Initial residual = 0.0196245, Final residual = 2.05404e-09, No Iterations 5
DILUPBiCG:  Solving for T, Initial residual = 0.000408723, Final residual = 4.22046e-10, No Iterations 4
DILUPBiCG:  Solving for T, Initial residual = 2.04159e-05, Final residual = 3.72624e-09, No Iterations 3
DILUPBiCG:  Solving for T, Initial residual = 2.5375e-06, Final residual = 8.91993e-09, No Iterations 2
 T goes from min(T) [0 0 0 0 0 0 0] -1.20896e-05 to max(T) [0 0 0 0 0 0 0] 0.948505

ExecutionTime = 63.72 s  ClockTime = 1005 s

Time = 1.05
Courant Number mean: 0.651678 max: 1.8916
DILUPBiCG:  Solving for T, Initial residual = 0.0197473, Final residual = 2.34077e-09, No Iterations 5
DILUPBiCG:  Solving for T, Initial residual = 0.000410239, Final residual = 3.49978e-10, No Iterations 4
DILUPBiCG:  Solving for T, Initial residual = 2.03211e-05, Final residual = 2.83376e-09, No Iterations 3
DILUPBiCG:  Solving for T, Initial residual = 2.50796e-06, Final residual = 8.41365e-09, No Iterations 2
 T goes from min(T) [0 0 0 0 0 0 0] -1.4115e-05 to max(T) [0 0 0 0 0 0 0] 0.949694

ExecutionTime = 64.27 s  ClockTime = 1013 s

Time = 1.06
Courant Number mean: 0.648955 max: 1.88325
DILUPBiCG:  Solving for T, Initial residual = 0.0198777, Final residual = 3.14562e-09, No Iterations 5
DILUPBiCG:  Solving for T, Initial residual = 0.00041135, Final residual = 2.88344e-10, No Iterations 4
DILUPBiCG:  Solving for T, Initial residual = 2.02081e-05, Final residual = 2.26815e-09, No Iterations 3
DILUPBiCG:  Solving for T, Initial residual = 2.47865e-06, Final residual = 8.06408e-09, No Iterations 2
 T goes from min(T) [0 0 0 0 0 0 0] -1.63172e-05 to max(T) [0 0 0 0 0 0 0] 0.949672

ExecutionTime = 64.8 s  ClockTime = 1020 s

Time = 1.07
Courant Number mean: 0.646326 max: 1.87451
DILUPBiCG:  Solving for T, Initial residual = 0.0200002, Final residual = 5.45048e-09, No Iterations 5
DILUPBiCG:  Solving for T, Initial residual = 0.000412677, Final residual = 2.41121e-10, No Iterations 4
DILUPBiCG:  Solving for T, Initial residual = 2.01574e-05, Final residual = 1.84037e-09, No Iterations 3
DILUPBiCG:  Solving for T, Initial residual = 2.4545e-06, Final residual = 7.55736e-09, No Iterations 2
 T goes from min(T) [0 0 0 0 0 0 0] -1.86463e-05 to max(T) [0 0 0 0 0 0 0] 0.949317

ExecutionTime = 65.33 s  ClockTime = 1027 s

Time = 1.08
Courant Number mean: 0.643784 max: 1.86566
DILUPBiCG:  Solving for T, Initial residual = 0.0201219, Final residual = 9.38998e-09, No Iterations 5
DILUPBiCG:  Solving for T, Initial residual = 0.000414321, Final residual = 2.10284e-10, No Iterations 4
DILUPBiCG:  Solving for T, Initial residual = 2.00519e-05, Final residual = 1.57902e-09, No Iterations 3
DILUPBiCG:  Solving for T, Initial residual = 2.41394e-06, Final residual = 7.14238e-09, No Iterations 2
 T goes from min(T) [0 0 0 0 0 0 0] -2.14498e-05 to max(T) [0 0 0 0 0 0 0] 0.948016

ExecutionTime = 65.9 s  ClockTime = 1035 s

Time = 1.09
Courant Number mean: 0.641339 max: 1.85644
DILUPBiCG:  Solving for T, Initial residual = 0.0202493, Final residual = 8.98403e-09, No Iterations 4
DILUPBiCG:  Solving for T, Initial residual = 0.000415805, Final residual = 1.93274e-10, No Iterations 4
DILUPBiCG:  Solving for T, Initial residual = 1.99513e-05, Final residual = 1.35817e-09, No Iterations 3
DILUPBiCG:  Solving for T, Initial residual = 2.38859e-06, Final residual = 6.72479e-09, No Iterations 2
 T goes from min(T) [0 0 0 0 0 0 0] -2.38975e-05 to max(T) [0 0 0 0 0 0 0] 0.948649

ExecutionTime = 66.42 s  ClockTime = 1043 s

Time = 1.1
Courant Number mean: 0.63898 max: 1.84685
DILUPBiCG:  Solving for T, Initial residual = 0.0203755, Final residual = 2.81238e-09, No Iterations 5
DILUPBiCG:  Solving for T, Initial residual = 0.000417408, Final residual = 1.84598e-10, No Iterations 4
DILUPBiCG:  Solving for T, Initial residual = 1.98969e-05, Final residual = 1.22519e-09, No Iterations 3
DILUPBiCG:  Solving for T, Initial residual = 2.35144e-06, Final residual = 6.26286e-09, No Iterations 2
 T goes from min(T) [0 0 0 0 0 0 0] -2.63648e-05 to max(T) [0 0 0 0 0 0 0] 0.948721

ExecutionTime = 66.96 s  ClockTime = 1050 s

Time = 1.11
Courant Number mean: 0.636721 max: 1.8369
DILUPBiCG:  Solving for T, Initial residual = 0.0204973, Final residual = 1.80554e-09, No Iterations 5
DILUPBiCG:  Solving for T, Initial residual = 0.000419329, Final residual = 1.81332e-10, No Iterations 4
DILUPBiCG:  Solving for T, Initial residual = 1.98073e-05, Final residual = 1.12207e-09, No Iterations 3
DILUPBiCG:  Solving for T, Initial residual = 2.3175e-06, Final residual = 5.89327e-09, No Iterations 2
 T goes from min(T) [0 0 0 0 0 0 0] -2.9267e-05 to max(T) [0 0 0 0 0 0 0] 0.947596

ExecutionTime = 67.53 s  ClockTime = 1058 s

Time = 1.12
Courant Number mean: 0.634555 max: 1.82659
DILUPBiCG:  Solving for T, Initial residual = 0.0206249, Final residual = 1.3598e-09, No Iterations 5
DILUPBiCG:  Solving for T, Initial residual = 0.000421223, Final residual = 1.7945e-10, No Iterations 4
DILUPBiCG:  Solving for T, Initial residual = 1.97304e-05, Final residual = 1.05927e-09, No Iterations 3
DILUPBiCG:  Solving for T, Initial residual = 2.28762e-06, Final residual = 5.48828e-09, No Iterations 2
 T goes from min(T) [0 0 0 0 0 0 0] -3.23469e-05 to max(T) [0 0 0 0 0 0 0] 0.948149

ExecutionTime = 68.11 s  ClockTime = 1066 s

Time = 1.13
Courant Number mean: 0.632483 max: 1.81594
DILUPBiCG:  Solving for T, Initial residual = 0.0207552, Final residual = 1.11422e-09, No Iterations 5
DILUPBiCG:  Solving for T, Initial residual = 0.000423026, Final residual = 1.76668e-10, No Iterations 4
DILUPBiCG:  Solving for T, Initial residual = 1.96992e-05, Final residual = 1.03275e-09, No Iterations 3
DILUPBiCG:  Solving for T, Initial residual = 2.24917e-06, Final residual = 5.08968e-09, No Iterations 2
 T goes from min(T) [0 0 0 0 0 0 0] -3.4994e-05 to max(T) [0 0 0 0 0 0 0] 0.947041

ExecutionTime = 68.65 s  ClockTime = 1074 s

Time = 1.14
Courant Number mean: 0.630508 max: 1.80496
DILUPBiCG:  Solving for T, Initial residual = 0.0208717, Final residual = 9.54911e-10, No Iterations 5
DILUPBiCG:  Solving for T, Initial residual = 0.000425262, Final residual = 1.72528e-10, No Iterations 4
DILUPBiCG:  Solving for T, Initial residual = 1.96188e-05, Final residual = 1.03829e-09, No Iterations 3
DILUPBiCG:  Solving for T, Initial residual = 2.22332e-06, Final residual = 4.79602e-09, No Iterations 2
 T goes from min(T) [0 0 0 0 0 0 0] -3.83371e-05 to max(T) [0 0 0 0 0 0 0] 0.947112

ExecutionTime = 69.19 s  ClockTime = 1081 s

Time = 1.15
Courant Number mean: 0.62863 max: 1.79366
DILUPBiCG:  Solving for T, Initial residual = 0.021001, Final residual = 8.42644e-10, No Iterations 5
DILUPBiCG:  Solving for T, Initial residual = 0.000427367, Final residual = 1.66449e-10, No Iterations 4
DILUPBiCG:  Solving for T, Initial residual = 1.95858e-05, Final residual = 1.07194e-09, No Iterations 3
DILUPBiCG:  Solving for T, Initial residual = 2.19012e-06, Final residual = 4.383e-09, No Iterations 2
 T goes from min(T) [0 0 0 0 0 0 0] -4.15689e-05 to max(T) [0 0 0 0 0 0 0] 0.946681

ExecutionTime = 69.73 s  ClockTime = 1089 s

Time = 1.16
Courant Number mean: 0.626848 max: 1.78227
DILUPBiCG:  Solving for T, Initial residual = 0.021127, Final residual = 7.56948e-10, No Iterations 5
DILUPBiCG:  Solving for T, Initial residual = 0.000429332, Final residual = 1.60191e-10, No Iterations 4
DILUPBiCG:  Solving for T, Initial residual = 1.95815e-05, Final residual = 1.14106e-09, No Iterations 3
DILUPBiCG:  Solving for T, Initial residual = 2.15952e-06, Final residual = 4.13528e-09, No Iterations 2
 T goes from min(T) [0 0 0 0 0 0 0] -4.4286e-05 to max(T) [0 0 0 0 0 0 0] 0.946352

ExecutionTime = 70.26 s  ClockTime = 1096 s

Time = 1.17
Courant Number mean: 0.625165 max: 1.77063
DILUPBiCG:  Solving for T, Initial residual = 0.0212458, Final residual = 6.8848e-10, No Iterations 5
DILUPBiCG:  Solving for T, Initial residual = 0.000432378, Final residual = 1.53021e-10, No Iterations 4
DILUPBiCG:  Solving for T, Initial residual = 1.95315e-05, Final residual = 1.26286e-09, No Iterations 3
DILUPBiCG:  Solving for T, Initial residual = 2.13575e-06, Final residual = 3.82562e-09, No Iterations 2
 T goes from min(T) [0 0 0 0 0 0 0] -4.81146e-05 to max(T) [0 0 0 0 0 0 0] 0.945776

ExecutionTime = 70.78 s  ClockTime = 1103 s

Time = 1.18
Courant Number mean: 0.62357 max: 1.75869
DILUPBiCG:  Solving for T, Initial residual = 0.0213738, Final residual = 6.30823e-10, No Iterations 5
DILUPBiCG:  Solving for T, Initial residual = 0.000434439, Final residual = 1.45991e-10, No Iterations 4
DILUPBiCG:  Solving for T, Initial residual = 1.95115e-05, Final residual = 1.45003e-09, No Iterations 3
DILUPBiCG:  Solving for T, Initial residual = 2.10544e-06, Final residual = 3.52901e-09, No Iterations 2
 T goes from min(T) [0 0 0 0 0 0 0] -5.05806e-05 to max(T) [0 0 0 0 0 0 0] 0.945254

ExecutionTime = 71.31 s  ClockTime = 1110 s

Time = 1.19
Courant Number mean: 0.622085 max: 1.74647
DILUPBiCG:  Solving for T, Initial residual = 0.0214999, Final residual = 5.80729e-10, No Iterations 5
DILUPBiCG:  Solving for T, Initial residual = 0.000436576, Final residual = 1.39294e-10, No Iterations 4
DILUPBiCG:  Solving for T, Initial residual = 1.9524e-05, Final residual = 1.77413e-09, No Iterations 3
DILUPBiCG:  Solving for T, Initial residual = 2.07921e-06, Final residual = 3.29933e-09, No Iterations 2
 T goes from min(T) [0 0 0 0 0 0 0] -5.46687e-05 to max(T) [0 0 0 0 0 0 0] 0.944794

ExecutionTime = 71.84 s  ClockTime = 1117 s

Time = 1.2
Courant Number mean: 0.62069 max: 1.73398
DILUPBiCG:  Solving for T, Initial residual = 0.0216104, Final residual = 5.33863e-10, No Iterations 5
DILUPBiCG:  Solving for T, Initial residual = 0.00043993, Final residual = 1.32912e-10, No Iterations 4
DILUPBiCG:  Solving for T, Initial residual = 1.95232e-05, Final residual = 2.40765e-09, No Iterations 3
DILUPBiCG:  Solving for T, Initial residual = 2.06175e-06, Final residual = 3.05332e-09, No Iterations 2
 T goes from min(T) [0 0 0 0 0 0 0] -5.70731e-05 to max(T) [0 0 0 0 0 0 0] 0.943365

ExecutionTime = 72.39 s  ClockTime = 1124 s

Time = 1.21
Courant Number mean: 0.619399 max: 1.72122
DILUPBiCG:  Solving for T, Initial residual = 0.0217477, Final residual = 4.89699e-10, No Iterations 5
DILUPBiCG:  Solving for T, Initial residual = 0.000442122, Final residual = 9.26221e-09, No Iterations 3
DILUPBiCG:  Solving for T, Initial residual = 1.95089e-05, Final residual = 3.90725e-09, No Iterations 3
DILUPBiCG:  Solving for T, Initial residual = 2.03091e-06, Final residual = 2.82261e-09, No Iterations 2
 T goes from min(T) [0 0 0 0 0 0 0] -6.12317e-05 to max(T) [0 0 0 0 0 0 0] 0.943806

ExecutionTime = 72.92 s  ClockTime = 1131 s

Time = 1.22
Courant Number mean: 0.618207 max: 1.70822
DILUPBiCG:  Solving for T, Initial residual = 0.021858, Final residual = 4.45489e-10, No Iterations 5
DILUPBiCG:  Solving for T, Initial residual = 0.000444791, Final residual = 8.48853e-09, No Iterations 3
DILUPBiCG:  Solving for T, Initial residual = 1.95391e-05, Final residual = 1.66682e-11, No Iterations 4
DILUPBiCG:  Solving for T, Initial residual = 2.01315e-06, Final residual = 2.62627e-09, No Iterations 2
 T goes from min(T) [0 0 0 0 0 0 0] -6.41037e-05 to max(T) [0 0 0 0 0 0 0] 0.942623

ExecutionTime = 73.46 s  ClockTime = 1138 s

Time = 1.23
Courant Number mean: 0.617102 max: 1.69497
DILUPBiCG:  Solving for T, Initial residual = 0.0219796, Final residual = 4.01352e-10, No Iterations 5
DILUPBiCG:  Solving for T, Initial residual = 0.000447962, Final residual = 7.81907e-09, No Iterations 3
DILUPBiCG:  Solving for T, Initial residual = 1.95851e-05, Final residual = 1.60595e-11, No Iterations 4
DILUPBiCG:  Solving for T, Initial residual = 1.99931e-06, Final residual = 2.43491e-09, No Iterations 2
 T goes from min(T) [0 0 0 0 0 0 0] -6.79844e-05 to max(T) [0 0 0 0 0 0 0] 0.941547

ExecutionTime = 73.99 s  ClockTime = 1145 s

Time = 1.24
Courant Number mean: 0.616108 max: 1.68174
DILUPBiCG:  Solving for T, Initial residual = 0.0221099, Final residual = 3.5774e-10, No Iterations 5
DILUPBiCG:  Solving for T, Initial residual = 0.000450488, Final residual = 7.25842e-09, No Iterations 3
DILUPBiCG:  Solving for T, Initial residual = 1.96e-05, Final residual = 3.66389e-09, No Iterations 3
DILUPBiCG:  Solving for T, Initial residual = 1.97196e-06, Final residual = 2.24609e-09, No Iterations 2
 T goes from min(T) [0 0 0 0 0 0 0] -7.12808e-05 to max(T) [0 0 0 0 0 0 0] 0.942378

ExecutionTime = 74.52 s  ClockTime = 1151 s

Time = 1.25
Courant Number mean: 0.615192 max: 1.66831
DILUPBiCG:  Solving for T, Initial residual = 0.0222229, Final residual = 3.15151e-10, No Iterations 5
DILUPBiCG:  Solving for T, Initial residual = 0.000453488, Final residual = 6.74406e-09, No Iterations 3
DILUPBiCG:  Solving for T, Initial residual = 1.96429e-05, Final residual = 2.20348e-09, No Iterations 3
DILUPBiCG:  Solving for T, Initial residual = 1.95832e-06, Final residual = 2.08307e-09, No Iterations 2
 T goes from min(T) [0 0 0 0 0 0 0] -7.4657e-05 to max(T) [0 0 0 0 0 0 0] 0.940344

ExecutionTime = 75.04 s  ClockTime = 1158 s

Time = 1.26
Courant Number mean: 0.61439 max: 1.67059
DILUPBiCG:  Solving for T, Initial residual = 0.0223395, Final residual = 2.75307e-10, No Iterations 5
DILUPBiCG:  Solving for T, Initial residual = 0.000456562, Final residual = 6.28046e-09, No Iterations 3
DILUPBiCG:  Solving for T, Initial residual = 1.97118e-05, Final residual = 1.56812e-09, No Iterations 3
DILUPBiCG:  Solving for T, Initial residual = 1.94393e-06, Final residual = 1.93545e-09, No Iterations 2
 T goes from min(T) [0 0 0 0 0 0 0] -8.30321e-05 to max(T) [0 0 0 0 0 0 0] 0.940524

ExecutionTime = 75.57 s  ClockTime = 1165 s

Time = 1.27
Courant Number mean: 0.613672 max: 1.67248
DILUPBiCG:  Solving for T, Initial residual = 0.0224649, Final residual = 2.39883e-10, No Iterations 5
DILUPBiCG:  Solving for T, Initial residual = 0.000459471, Final residual = 5.87476e-09, No Iterations 3
DILUPBiCG:  Solving for T, Initial residual = 1.9772e-05, Final residual = 1.21814e-09, No Iterations 3
DILUPBiCG:  Solving for T, Initial residual = 1.92335e-06, Final residual = 1.77726e-09, No Iterations 2
 T goes from min(T) [0 0 0 0 0 0 0] -8.97979e-05 to max(T) [0 0 0 0 0 0 0] 0.940042

ExecutionTime = 76.13 s  ClockTime = 1172 s

Time = 1.28
Courant Number mean: 0.613053 max: 1.6742
DILUPBiCG:  Solving for T, Initial residual = 0.0225713, Final residual = 2.09595e-10, No Iterations 5
DILUPBiCG:  Solving for T, Initial residual = 0.000462407, Final residual = 5.51737e-09, No Iterations 3
DILUPBiCG:  Solving for T, Initial residual = 1.9846e-05, Final residual = 9.92925e-10, No Iterations 3
DILUPBiCG:  Solving for T, Initial residual = 1.91669e-06, Final residual = 1.65784e-09, No Iterations 2
 T goes from min(T) [0 0 0 0 0 0 0] -0.000105534 to max(T) [0 0 0 0 0 0 0] 0.939323

ExecutionTime = 76.65 s  ClockTime = 1179 s

Time = 1.29
Courant Number mean: 0.612536 max: 1.6755
DILUPBiCG:  Solving for T, Initial residual = 0.022693, Final residual = 1.85043e-10, No Iterations 5
DILUPBiCG:  Solving for T, Initial residual = 0.000465788, Final residual = 5.20352e-09, No Iterations 3
DILUPBiCG:  Solving for T, Initial residual = 1.99281e-05, Final residual = 8.38048e-10, No Iterations 3
DILUPBiCG:  Solving for T, Initial residual = 1.89955e-06, Final residual = 1.53788e-09, No Iterations 2
 T goes from min(T) [0 0 0 0 0 0 0] -0.000114488 to max(T) [0 0 0 0 0 0 0] 0.939075

ExecutionTime = 77.17 s  ClockTime = 1186 s

Time = 1.3
Courant Number mean: 0.612107 max: 1.67639
DILUPBiCG:  Solving for T, Initial residual = 0.0228155, Final residual = 1.65869e-10, No Iterations 5
DILUPBiCG:  Solving for T, Initial residual = 0.000469081, Final residual = 4.93153e-09, No Iterations 3
DILUPBiCG:  Solving for T, Initial residual = 2.00287e-05, Final residual = 7.30383e-10, No Iterations 3
DILUPBiCG:  Solving for T, Initial residual = 1.88962e-06, Final residual = 1.41527e-09, No Iterations 2
 T goes from min(T) [0 0 0 0 0 0 0] -0.000134637 to max(T) [0 0 0 0 0 0 0] 0.939141

ExecutionTime = 77.7 s  ClockTime = 1193 s

Time = 1.31
Courant Number mean: 0.611784 max: 1.67686
DILUPBiCG:  Solving for T, Initial residual = 0.0229167, Final residual = 1.51526e-10, No Iterations 5
DILUPBiCG:  Solving for T, Initial residual = 0.000472025, Final residual = 4.68999e-09, No Iterations 3
DILUPBiCG:  Solving for T, Initial residual = 2.01356e-05, Final residual = 6.47845e-10, No Iterations 3
DILUPBiCG:  Solving for T, Initial residual = 1.88236e-06, Final residual = 1.32373e-09, No Iterations 2
 T goes from min(T) [0 0 0 0 0 0 0] -0.000147189 to max(T) [0 0 0 0 0 0 0] 0.938731

[...]
 T goes from min(T) [0 0 0 0 0 0 0] -0.149939 to max(T) [0 0 0 0 0 0 0] 0.826603

ExecutionTime = 310.48 s  ClockTime = 2884 s

Time = 5.68
Courant Number mean: 0.799615 max: 2.03013
DILUPBiCG:  Solving for T, Initial residual = 0.015975, Final residual = 1.36137e-09, No Iterations 5
DILUPBiCG:  Solving for T, Initial residual = 0.000377888, Final residual = 4.75656e-10, No Iterations 4
DILUPBiCG:  Solving for T, Initial residual = 2.22798e-05, Final residual = 7.00806e-09, No Iterations 3
DILUPBiCG:  Solving for T, Initial residual = 2.62771e-06, Final residual = 3.4334e-10, No Iterations 3
 T goes from min(T) [0 0 0 0 0 0 0] -0.149541 to max(T) [0 0 0 0 0 0 0] 0.82596

ExecutionTime = 311.01 s  ClockTime = 2887 s

Time = 5.69
Courant Number mean: 0.801249 max: 2.02387
DILUPBiCG:  Solving for T, Initial residual = 0.0160783, Final residual = 1.27145e-09, No Iterations 5
DILUPBiCG:  Solving for T, Initial residual = 0.000382091, Final residual = 5.85006e-10, No Iterations 4
DILUPBiCG:  Solving for T, Initial residual = 2.27556e-05, Final residual = 1.76934e-09, No Iterations 3
DILUPBiCG:  Solving for T, Initial residual = 2.6824e-06, Final residual = 4.84322e-09, No Iterations 2
 T goes from min(T) [0 0 0 0 0 0 0] -0.148189 to max(T) [0 0 0 0 0 0 0] 0.825587

ExecutionTime = 311.55 s  ClockTime = 2890 s

Time = 5.7
Courant Number mean: 0.802857 max: 2.01825
DILUPBiCG:  Solving for T, Initial residual = 0.0161898, Final residual = 9.96218e-10, No Iterations 5
DILUPBiCG:  Solving for T, Initial residual = 0.000387094, Final residual = 1.98464e-09, No Iterations 4
DILUPBiCG:  Solving for T, Initial residual = 2.31655e-05, Final residual = 1.02882e-09, No Iterations 3
DILUPBiCG:  Solving for T, Initial residual = 2.74208e-06, Final residual = 4.29303e-09, No Iterations 2
 T goes from min(T) [0 0 0 0 0 0 0] -0.149189 to max(T) [0 0 0 0 0 0 0] 0.824904

ExecutionTime = 312.08 s  ClockTime = 2893 s

Time = 5.71
Courant Number mean: 0.804459 max: 2.0122
DILUPBiCG:  Solving for T, Initial residual = 0.0163013, Final residual = 8.98661e-10, No Iterations 5
DILUPBiCG:  Solving for T, Initial residual = 0.000391591, Final residual = 8.18839e-10, No Iterations 4
DILUPBiCG:  Solving for T, Initial residual = 2.36219e-05, Final residual = 1.31357e-09, No Iterations 3
DILUPBiCG:  Solving for T, Initial residual = 2.81668e-06, Final residual = 1.69158e-10, No Iterations 3
 T goes from min(T) [0 0 0 0 0 0 0] -0.148189 to max(T) [0 0 0 0 0 0 0] 0.824455

ExecutionTime = 312.62 s  ClockTime = 2896 s

Time = 5.72
Courant Number mean: 0.806032 max: 2.00587
DILUPBiCG:  Solving for T, Initial residual = 0.0164163, Final residual = 8.83281e-10, No Iterations 5
DILUPBiCG:  Solving for T, Initial residual = 0.000396159, Final residual = 6.3091e-10, No Iterations 4
DILUPBiCG:  Solving for T, Initial residual = 2.41246e-05, Final residual = 4.24428e-09, No Iterations 3
DILUPBiCG:  Solving for T, Initial residual = 2.92064e-06, Final residual = 1.30805e-10, No Iterations 3
 T goes from min(T) [0 0 0 0 0 0 0] -0.148135 to max(T) [0 0 0 0 0 0 0] 0.823552

ExecutionTime = 313.15 s  ClockTime = 2900 s

Time = 5.73
Courant Number mean: 0.807595 max: 1.99963
DILUPBiCG:  Solving for T, Initial residual = 0.0165264, Final residual = 9.21153e-10, No Iterations 5
DILUPBiCG:  Solving for T, Initial residual = 0.000401561, Final residual = 4.1177e-10, No Iterations 4
DILUPBiCG:  Solving for T, Initial residual = 2.49071e-05, Final residual = 1.90742e-09, No Iterations 3
DILUPBiCG:  Solving for T, Initial residual = 3.07136e-06, Final residual = 3.06554e-09, No Iterations 2
 T goes from min(T) [0 0 0 0 0 0 0] -0.148295 to max(T) [0 0 0 0 0 0 0] 0.823106

ExecutionTime = 313.67 s  ClockTime = 2903 s

Time = 5.74
Courant Number mean: 0.809132 max: 1.99324
DILUPBiCG:  Solving for T, Initial residual = 0.0166442, Final residual = 1.51181e-09, No Iterations 5
DILUPBiCG:  Solving for T, Initial residual = 0.000407913, Final residual = 3.984e-10, No Iterations 4
DILUPBiCG:  Solving for T, Initial residual = 2.58396e-05, Final residual = 3.21978e-09, No Iterations 3
DILUPBiCG:  Solving for T, Initial residual = 3.2639e-06, Final residual = 2.71883e-09, No Iterations 2
 T goes from min(T) [0 0 0 0 0 0 0] -0.146292 to max(T) [0 0 0 0 0 0 0] 0.822204

ExecutionTime = 314.21 s  ClockTime = 2906 s

Time = 5.75
Courant Number mean: 0.810657 max: 1.98713
DILUPBiCG:  Solving for T, Initial residual = 0.0167707, Final residual = 9.79665e-10, No Iterations 5
DILUPBiCG:  Solving for T, Initial residual = 0.000414603, Final residual = 3.933e-10, No Iterations 4
DILUPBiCG:  Solving for T, Initial residual = 2.67575e-05, Final residual = 9.97854e-10, No Iterations 3
DILUPBiCG:  Solving for T, Initial residual = 3.47213e-06, Final residual = 2.73368e-09, No Iterations 2
 T goes from min(T) [0 0 0 0 0 0 0] -0.147773 to max(T) [0 0 0 0 0 0 0] 0.82135

ExecutionTime = 314.77 s  ClockTime = 2909 s

Time = 5.76
Courant Number mean: 0.812148 max: 1.9806
DILUPBiCG:  Solving for T, Initial residual = 0.0168849, Final residual = 9.29432e-09, No Iterations 4
DILUPBiCG:  Solving for T, Initial residual = 0.000420228, Final residual = 3.931e-10, No Iterations 4
DILUPBiCG:  Solving for T, Initial residual = 2.7926e-05, Final residual = 1.01325e-09, No Iterations 3
DILUPBiCG:  Solving for T, Initial residual = 3.67663e-06, Final residual = 2.8492e-09, No Iterations 2
 T goes from min(T) [0 0 0 0 0 0 0] -0.146441 to max(T) [0 0 0 0 0 0 0] 0.821131

ExecutionTime = 315.3 s  ClockTime = 2912 s

Time = 5.77
Courant Number mean: 0.813635 max: 1.97372
DILUPBiCG:  Solving for T, Initial residual = 0.0170079, Final residual = 9.52961e-09, No Iterations 4
DILUPBiCG:  Solving for T, Initial residual = 0.000427441, Final residual = 3.95112e-10, No Iterations 4
DILUPBiCG:  Solving for T, Initial residual = 2.90902e-05, Final residual = 1.20421e-09, No Iterations 3
DILUPBiCG:  Solving for T, Initial residual = 3.86443e-06, Final residual = 3.07081e-09, No Iterations 2
 T goes from min(T) [0 0 0 0 0 0 0] -0.146691 to max(T) [0 0 0 0 0 0 0] 0.821235

ExecutionTime = 315.86 s  ClockTime = 2914 s

Time = 5.78
Courant Number mean: 0.81509 max: 1.9674
DILUPBiCG:  Solving for T, Initial residual = 0.0171315, Final residual = 7.99653e-10, No Iterations 5
DILUPBiCG:  Solving for T, Initial residual = 0.000434284, Final residual = 3.99212e-10, No Iterations 4
DILUPBiCG:  Solving for T, Initial residual = 3.00492e-05, Final residual = 2.38082e-09, No Iterations 3
DILUPBiCG:  Solving for T, Initial residual = 4.08076e-06, Final residual = 3.15876e-09, No Iterations 2
 T goes from min(T) [0 0 0 0 0 0 0] -0.146601 to max(T) [0 0 0 0 0 0 0] 0.820566

ExecutionTime = 316.39 s  ClockTime = 2917 s

Time = 5.79
Courant Number mean: 0.816533 max: 1.9606
DILUPBiCG:  Solving for T, Initial residual = 0.0172544, Final residual = 8.10914e-10, No Iterations 5
DILUPBiCG:  Solving for T, Initial residual = 0.00044057, Final residual = 4.0585e-10, No Iterations 4
DILUPBiCG:  Solving for T, Initial residual = 3.11312e-05, Final residual = 2.25021e-09, No Iterations 3
DILUPBiCG:  Solving for T, Initial residual = 4.24742e-06, Final residual = 3.02615e-09, No Iterations 2
 T goes from min(T) [0 0 0 0 0 0 0] -0.145036 to max(T) [0 0 0 0 0 0 0] 0.820768

ExecutionTime = 316.96 s  ClockTime = 2920 s

Time = 5.8
Courant Number mean: 0.81794 max: 1.95333
DILUPBiCG:  Solving for T, Initial residual = 0.017387, Final residual = 8.15238e-10, No Iterations 5
DILUPBiCG:  Solving for T, Initial residual = 0.000448248, Final residual = 4.19207e-10, No Iterations 4
DILUPBiCG:  Solving for T, Initial residual = 3.2035e-05, Final residual = 1.2284e-09, No Iterations 3
DILUPBiCG:  Solving for T, Initial residual = 4.41153e-06, Final residual = 3.04921e-09, No Iterations 2
 T goes from min(T) [0 0 0 0 0 0 0] -0.146281 to max(T) [0 0 0 0 0 0 0] 0.821213

ExecutionTime = 317.52 s  ClockTime = 2923 s

Time = 5.81
Courant Number mean: 0.819336 max: 1.94673
DILUPBiCG:  Solving for T, Initial residual = 0.0175117, Final residual = 7.98095e-10, No Iterations 5
DILUPBiCG:  Solving for T, Initial residual = 0.000456536, Final residual = 6.57229e-10, No Iterations 4
DILUPBiCG:  Solving for T, Initial residual = 3.29833e-05, Final residual = 1.07266e-09, No Iterations 3
DILUPBiCG:  Solving for T, Initial residual = 4.57418e-06, Final residual = 3.17204e-09, No Iterations 2
 T goes from min(T) [0 0 0 0 0 0 0] -0.143638 to max(T) [0 0 0 0 0 0 0] 0.821039

ExecutionTime = 318.15 s  ClockTime = 2926 s

Time = 5.82
Courant Number mean: 0.820703 max: 1.93967
DILUPBiCG:  Solving for T, Initial residual = 0.0176388, Final residual = 7.52377e-10, No Iterations 5
DILUPBiCG:  Solving for T, Initial residual = 0.000464549, Final residual = 4.27012e-10, No Iterations 4
DILUPBiCG:  Solving for T, Initial residual = 3.39676e-05, Final residual = 1.05289e-09, No Iterations 3
DILUPBiCG:  Solving for T, Initial residual = 4.71831e-06, Final residual = 3.37304e-09, No Iterations 2
 T goes from min(T) [0 0 0 0 0 0 0] -0.1457 to max(T) [0 0 0 0 0 0 0] 0.820589

ExecutionTime = 318.7 s  ClockTime = 2929 s

Time = 5.83
Courant Number mean: 0.822051 max: 1.93253
DILUPBiCG:  Solving for T, Initial residual = 0.0177672, Final residual = 7.31625e-10, No Iterations 5
DILUPBiCG:  Solving for T, Initial residual = 0.000473266, Final residual = 4.39088e-10, No Iterations 4
DILUPBiCG:  Solving for T, Initial residual = 3.49769e-05, Final residual = 1.09768e-09, No Iterations 3
DILUPBiCG:  Solving for T, Initial residual = 4.84099e-06, Final residual = 3.93143e-09, No Iterations 2
 T goes from min(T) [0 0 0 0 0 0 0] -0.143928 to max(T) [0 0 0 0 0 0 0] 0.820822

ExecutionTime = 319.24 s  ClockTime = 2931 s

Time = 5.84
Courant Number mean: 0.823366 max: 1.92529
DILUPBiCG:  Solving for T, Initial residual = 0.0178972, Final residual = 1.01519e-09, No Iterations 5
DILUPBiCG:  Solving for T, Initial residual = 0.00048324, Final residual = 5.4024e-10, No Iterations 4
DILUPBiCG:  Solving for T, Initial residual = 3.59492e-05, Final residual = 1.17685e-09, No Iterations 3
DILUPBiCG:  Solving for T, Initial residual = 4.99114e-06, Final residual = 4.36104e-09, No Iterations 2
 T goes from min(T) [0 0 0 0 0 0 0] -0.144728 to max(T) [0 0 0 0 0 0 0] 0.821273

ExecutionTime = 319.79 s  ClockTime = 2934 s

Time = 5.85
Courant Number mean: 0.824665 max: 1.91796
DILUPBiCG:  Solving for T, Initial residual = 0.0180275, Final residual = 4.25018e-09, No Iterations 5
DILUPBiCG:  Solving for T, Initial residual = 0.000491312, Final residual = 1.18751e-09, No Iterations 4
DILUPBiCG:  Solving for T, Initial residual = 3.70289e-05, Final residual = 1.2282e-09, No Iterations 3
DILUPBiCG:  Solving for T, Initial residual = 5.11673e-06, Final residual = 4.57561e-09, No Iterations 2
 T goes from min(T) [0 0 0 0 0 0 0] -0.144079 to max(T) [0 0 0 0 0 0 0] 0.820944

ExecutionTime = 320.32 s  ClockTime = 2937 s

Time = 5.86
Courant Number mean: 0.825929 max: 1.91093
DILUPBiCG:  Solving for T, Initial residual = 0.0181601, Final residual = 2.24214e-09, No Iterations 5
DILUPBiCG:  Solving for T, Initial residual = 0.000500627, Final residual = 2.06709e-09, No Iterations 4
DILUPBiCG:  Solving for T, Initial residual = 3.80612e-05, Final residual = 1.22292e-09, No Iterations 3
DILUPBiCG:  Solving for T, Initial residual = 5.24593e-06, Final residual = 4.97673e-09, No Iterations 2
 T goes from min(T) [0 0 0 0 0 0 0] -0.143629 to max(T) [0 0 0 0 0 0 0] 0.820717

ExecutionTime = 320.84 s  ClockTime = 2939 s

Time = 5.87
Courant Number mean: 0.827177 max: 1.90345
DILUPBiCG:  Solving for T, Initial residual = 0.0182872, Final residual = 1.12741e-09, No Iterations 5
DILUPBiCG:  Solving for T, Initial residual = 0.000509213, Final residual = 8.22259e-10, No Iterations 4
DILUPBiCG:  Solving for T, Initial residual = 3.90257e-05, Final residual = 1.24695e-09, No Iterations 3
DILUPBiCG:  Solving for T, Initial residual = 5.38001e-06, Final residual = 6.27218e-09, No Iterations 2
 T goes from min(T) [0 0 0 0 0 0 0] -0.143881 to max(T) [0 0 0 0 0 0 0] 0.820494

ExecutionTime = 321.37 s  ClockTime = 2942 s

Time = 5.88
Courant Number mean: 0.828386 max: 1.89576
DILUPBiCG:  Solving for T, Initial residual = 0.0184244, Final residual = 9.0517e-10, No Iterations 5
DILUPBiCG:  Solving for T, Initial residual = 0.000517943, Final residual = 5.76108e-10, No Iterations 4
DILUPBiCG:  Solving for T, Initial residual = 4.00572e-05, Final residual = 1.35452e-09, No Iterations 3
DILUPBiCG:  Solving for T, Initial residual = 5.46036e-06, Final residual = 1.51334e-10, No Iterations 3
 T goes from min(T) [0 0 0 0 0 0 0] -0.142461 to max(T) [0 0 0 0 0 0 0] 0.821207

ExecutionTime = 321.9 s  ClockTime = 2945 s

Time = 5.89
Courant Number mean: 0.829575 max: 1.88849
DILUPBiCG:  Solving for T, Initial residual = 0.0185458, Final residual = 8.31252e-10, No Iterations 5
DILUPBiCG:  Solving for T, Initial residual = 0.000527186, Final residual = 5.05551e-10, No Iterations 4
DILUPBiCG:  Solving for T, Initial residual = 4.09212e-05, Final residual = 1.62725e-09, No Iterations 3
DILUPBiCG:  Solving for T, Initial residual = 5.56313e-06, Final residual = 1.48292e-10, No Iterations 3
 T goes from min(T) [0 0 0 0 0 0 0] -0.14359 to max(T) [0 0 0 0 0 0 0] 0.821169

ExecutionTime = 322.4 s  ClockTime = 2947 s

Time = 5.9
Courant Number mean: 0.830728 max: 1.88078
DILUPBiCG:  Solving for T, Initial residual = 0.0186782, Final residual = 8.0248e-10, No Iterations 5
DILUPBiCG:  Solving for T, Initial residual = 0.000535548, Final residual = 4.72652e-10, No Iterations 4
DILUPBiCG:  Solving for T, Initial residual = 4.17504e-05, Final residual = 2.20236e-09, No Iterations 3
DILUPBiCG:  Solving for T, Initial residual = 5.63093e-06, Final residual = 1.53071e-10, No Iterations 3
 T goes from min(T) [0 0 0 0 0 0 0] -0.141399 to max(T) [0 0 0 0 0 0 0] 0.820724

ExecutionTime = 322.93 s  ClockTime = 2950 s

Time = 5.91
Courant Number mean: 0.83186 max: 1.87275
DILUPBiCG:  Solving for T, Initial residual = 0.0188161, Final residual = 8.00816e-10, No Iterations 5
DILUPBiCG:  Solving for T, Initial residual = 0.000543108, Final residual = 9.58062e-09, No Iterations 3
DILUPBiCG:  Solving for T, Initial residual = 4.25708e-05, Final residual = 3.60538e-09, No Iterations 3
DILUPBiCG:  Solving for T, Initial residual = 5.70052e-06, Final residual = 1.60537e-10, No Iterations 3
 T goes from min(T) [0 0 0 0 0 0 0] -0.143111 to max(T) [0 0 0 0 0 0 0] 0.820654

ExecutionTime = 323.47 s  ClockTime = 2952 s

Time = 5.92
Courant Number mean: 0.832948 max: 1.86527
DILUPBiCG:  Solving for T, Initial residual = 0.0189461, Final residual = 8.38759e-10, No Iterations 5
DILUPBiCG:  Solving for T, Initial residual = 0.00055093, Final residual = 8.81769e-09, No Iterations 3
DILUPBiCG:  Solving for T, Initial residual = 4.32524e-05, Final residual = 4.55839e-11, No Iterations 4
DILUPBiCG:  Solving for T, Initial residual = 5.77673e-06, Final residual = 9.01152e-09, No Iterations 2
 T goes from min(T) [0 0 0 0 0 0 0] -0.140544 to max(T) [0 0 0 0 0 0 0] 0.820628

ExecutionTime = 324 s  ClockTime = 2955 s

Time = 5.93
Courant Number mean: 0.834012 max: 1.85735
DILUPBiCG:  Solving for T, Initial residual = 0.0190754, Final residual = 9.50908e-10, No Iterations 5
DILUPBiCG:  Solving for T, Initial residual = 0.00055966, Final residual = 8.30457e-09, No Iterations 3
DILUPBiCG:  Solving for T, Initial residual = 4.41391e-05, Final residual = 4.33989e-09, No Iterations 3
DILUPBiCG:  Solving for T, Initial residual = 5.847e-06, Final residual = 6.98111e-09, No Iterations 2
 T goes from min(T) [0 0 0 0 0 0 0] -0.142602 to max(T) [0 0 0 0 0 0 0] 0.82122

ExecutionTime = 324.55 s  ClockTime = 2958 s

Time = 5.94
Courant Number mean: 0.835039 max: 1.84947
DILUPBiCG:  Solving for T, Initial residual = 0.0191892, Final residual = 1.24948e-09, No Iterations 5
DILUPBiCG:  Solving for T, Initial residual = 0.000566304, Final residual = 7.99321e-09, No Iterations 3
DILUPBiCG:  Solving for T, Initial residual = 4.48256e-05, Final residual = 1.60098e-09, No Iterations 3
DILUPBiCG:  Solving for T, Initial residual = 5.93656e-06, Final residual = 5.82868e-09, No Iterations 2
 T goes from min(T) [0 0 0 0 0 0 0] -0.139936 to max(T) [0 0 0 0 0 0 0] 0.821218

ExecutionTime = 325.07 s  ClockTime = 2960 s

Time = 5.95
Courant Number mean: 0.836034 max: 1.84137
DILUPBiCG:  Solving for T, Initial residual = 0.0193368, Final residual = 2.49771e-09, No Iterations 5
DILUPBiCG:  Solving for T, Initial residual = 0.000574769, Final residual = 7.81266e-09, No Iterations 3
DILUPBiCG:  Solving for T, Initial residual = 4.57384e-05, Final residual = 1.17156e-09, No Iterations 3
DILUPBiCG:  Solving for T, Initial residual = 5.98981e-06, Final residual = 5.23995e-09, No Iterations 2
 T goes from min(T) [0 0 0 0 0 0 0] -0.142112 to max(T) [0 0 0 0 0 0 0] 0.820723

ExecutionTime = 325.66 s  ClockTime = 2963 s

Time = 5.96
Courant Number mean: 0.83699 max: 1.83338
DILUPBiCG:  Solving for T, Initial residual = 0.0194588, Final residual = 5.7874e-09, No Iterations 5
DILUPBiCG:  Solving for T, Initial residual = 0.000580943, Final residual = 7.93786e-09, No Iterations 3
DILUPBiCG:  Solving for T, Initial residual = 4.63747e-05, Final residual = 1.05119e-09, No Iterations 3
DILUPBiCG:  Solving for T, Initial residual = 6.04953e-06, Final residual = 5.05434e-09, No Iterations 2
 T goes from min(T) [0 0 0 0 0 0 0] -0.13956 to max(T) [0 0 0 0 0 0 0] 0.820756

ExecutionTime = 326.2 s  ClockTime = 2966 s

Time = 5.97
Courant Number mean: 0.837914 max: 1.82551
DILUPBiCG:  Solving for T, Initial residual = 0.0195904, Final residual = 1.09904e-09, No Iterations 5
DILUPBiCG:  Solving for T, Initial residual = 0.000588456, Final residual = 8.04063e-09, No Iterations 3
DILUPBiCG:  Solving for T, Initial residual = 4.71961e-05, Final residual = 1.00038e-09, No Iterations 3
DILUPBiCG:  Solving for T, Initial residual = 6.14401e-06, Final residual = 4.92874e-09, No Iterations 2
 T goes from min(T) [0 0 0 0 0 0 0] -0.141582 to max(T) [0 0 0 0 0 0 0] 0.820252

ExecutionTime = 326.78 s  ClockTime = 2969 s

Time = 5.98
Courant Number mean: 0.838792 max: 1.81722
DILUPBiCG:  Solving for T, Initial residual = 0.0197074, Final residual = 6.3358e-10, No Iterations 5
DILUPBiCG:  Solving for T, Initial residual = 0.000595096, Final residual = 8.11219e-09, No Iterations 3
DILUPBiCG:  Solving for T, Initial residual = 4.77973e-05, Final residual = 9.70608e-10, No Iterations 3
DILUPBiCG:  Solving for T, Initial residual = 6.15369e-06, Final residual = 4.84305e-09, No Iterations 2
 T goes from min(T) [0 0 0 0 0 0 0] -0.139352 to max(T) [0 0 0 0 0 0 0] 0.820724

ExecutionTime = 327.35 s  ClockTime = 2972 s

Time = 5.99
Courant Number mean: 0.839636 max: 1.80894
DILUPBiCG:  Solving for T, Initial residual = 0.0198355, Final residual = 4.94135e-10, No Iterations 5
DILUPBiCG:  Solving for T, Initial residual = 0.000602738, Final residual = 8.18015e-09, No Iterations 3
DILUPBiCG:  Solving for T, Initial residual = 4.84628e-05, Final residual = 9.54176e-10, No Iterations 3
DILUPBiCG:  Solving for T, Initial residual = 6.24003e-06, Final residual = 4.8432e-09, No Iterations 2
 T goes from min(T) [0 0 0 0 0 0 0] -0.141023 to max(T) [0 0 0 0 0 0 0] 0.821217

ExecutionTime = 327.87 s  ClockTime = 2974 s

Time = 6
Courant Number mean: 0.840435 max: 1.80088
DILUPBiCG:  Solving for T, Initial residual = 0.0199507, Final residual = 4.41204e-10, No Iterations 5
DILUPBiCG:  Solving for T, Initial residual = 0.000608594, Final residual = 8.25402e-09, No Iterations 3
DILUPBiCG:  Solving for T, Initial residual = 4.91454e-05, Final residual = 9.39409e-10, No Iterations 3
DILUPBiCG:  Solving for T, Initial residual = 6.26934e-06, Final residual = 4.79561e-09, No Iterations 2
 T goes from min(T) [0 0 0 0 0 0 0] -0.139196 to max(T) [0 0 0 0 0 0 0] 0.821295

ExecutionTime = 328.39 s  ClockTime = 2977 s

End

