/*---------------------------------------------------------------------------*\
| =========                 |                                                 |
| \\      /  F ield         | OpenFOAM: The Open Source CFD Toolbox           |
|  \\    /   O peration     | Version:  dev                                   |
|   \\  /    A nd           | Web:      www.OpenFOAM.org                      |
|    \\/     M anipulation  |                                                 |
\*---------------------------------------------------------------------------*/
Build  : dev-90f39e0d894d
Exec   : scalarDeformationWithGhosts explicit -case nonOrthogW/240x120/c2_explicit
Date   : May 23 2017
Time   : 20:31:20
Host   : "sws02hw.private.rdg.ac.uk"
PID    : 22918
Case   : nonOrthogW/240x120/c2_explicit
nProcs : 1
sigFpe : Enabling floating point exception trapping (FOAM_SIGFPE).
fileModificationChecking : Monitoring run-time modified files using timeStampMaster (fileModificationSkew 10)
allowSystemOperations : Allowing user-supplied system call operations

// * * * * * * * * * * * * * * * * * * * * * * * * * * * * * * * * * * * * * //
Create time

Create mesh for time = 0

Reading field T

Reading fields phi (compulsory), U and Uf (optional)

Calculating owner stencils
Calculating neighbour stencils

Calculating scalar transport

Courant Number mean: 0.931196 max: 1.93016
Time = 0.01
Courant Number mean: 0.931147 max: 1.93502
diagonal:  Solving for T, Initial residual = 0, Final residual = 0, No Iterations 0
diagonal:  Solving for T, Initial residual = 0, Final residual = 0, No Iterations 0
diagonal:  Solving for T, Initial residual = 0, Final residual = 0, No Iterations 0
diagonal:  Solving for T, Initial residual = 0, Final residual = 0, No Iterations 0
 T goes from min(T) [0 0 0 0 0 0 0] 7.47318e-21 to max(T) [0 0 0 0 0 0 0] 0.953284

ExecutionTime = 8.16 s  ClockTime = 155 s

Time = 0.02
Courant Number mean: 0.93098 max: 1.94054
diagonal:  Solving for T, Initial residual = 0, Final residual = 0, No Iterations 0
diagonal:  Solving for T, Initial residual = 0, Final residual = 0, No Iterations 0
diagonal:  Solving for T, Initial residual = 0, Final residual = 0, No Iterations 0
diagonal:  Solving for T, Initial residual = 0, Final residual = 0, No Iterations 0
 T goes from min(T) [0 0 0 0 0 0 0] 8.25214e-21 to max(T) [0 0 0 0 0 0 0] 0.953774

ExecutionTime = 8.69 s  ClockTime = 166 s

Time = 0.03
Courant Number mean: 0.930711 max: 1.94554
diagonal:  Solving for T, Initial residual = 0, Final residual = 0, No Iterations 0
diagonal:  Solving for T, Initial residual = 0, Final residual = 0, No Iterations 0
diagonal:  Solving for T, Initial residual = 0, Final residual = 0, No Iterations 0
diagonal:  Solving for T, Initial residual = 0, Final residual = 0, No Iterations 0
 T goes from min(T) [0 0 0 0 0 0 0] 7.69587e-21 to max(T) [0 0 0 0 0 0 0] 0.953364

ExecutionTime = 9.24 s  ClockTime = 177 s

Time = 0.04
Courant Number mean: 0.930325 max: 1.95002
diagonal:  Solving for T, Initial residual = 0, Final residual = 0, No Iterations 0
diagonal:  Solving for T, Initial residual = 0, Final residual = 0, No Iterations 0
diagonal:  Solving for T, Initial residual = 0, Final residual = 0, No Iterations 0
diagonal:  Solving for T, Initial residual = 0, Final residual = 0, No Iterations 0
 T goes from min(T) [0 0 0 0 0 0 0] -3.13608e-07 to max(T) [0 0 0 0 0 0 0] 0.953867

ExecutionTime = 9.76 s  ClockTime = 188 s

Time = 0.05
Courant Number mean: 0.929835 max: 1.95524
diagonal:  Solving for T, Initial residual = 0, Final residual = 0, No Iterations 0
diagonal:  Solving for T, Initial residual = 0, Final residual = 0, No Iterations 0
diagonal:  Solving for T, Initial residual = 0, Final residual = 0, No Iterations 0
diagonal:  Solving for T, Initial residual = 0, Final residual = 0, No Iterations 0
 T goes from min(T) [0 0 0 0 0 0 0] -1.67933e-06 to max(T) [0 0 0 0 0 0 0] 0.953481

ExecutionTime = 10.29 s  ClockTime = 199 s

Time = 0.06
Courant Number mean: 0.929233 max: 1.95994
diagonal:  Solving for T, Initial residual = 0, Final residual = 0, No Iterations 0
diagonal:  Solving for T, Initial residual = 0, Final residual = 0, No Iterations 0
diagonal:  Solving for T, Initial residual = 0, Final residual = 0, No Iterations 0
diagonal:  Solving for T, Initial residual = 0, Final residual = 0, No Iterations 0
 T goes from min(T) [0 0 0 0 0 0 0] -7.16791e-06 to max(T) [0 0 0 0 0 0 0] 0.953906

ExecutionTime = 10.84 s  ClockTime = 211 s

Time = 0.07
Courant Number mean: 0.928526 max: 1.9646
diagonal:  Solving for T, Initial residual = 0, Final residual = 0, No Iterations 0
diagonal:  Solving for T, Initial residual = 0, Final residual = 0, No Iterations 0
diagonal:  Solving for T, Initial residual = 0, Final residual = 0, No Iterations 0
diagonal:  Solving for T, Initial residual = 0, Final residual = 0, No Iterations 0
 T goes from min(T) [0 0 0 0 0 0 0] -3.94899e-05 to max(T) [0 0 0 0 0 0 0] 0.953686

ExecutionTime = 11.34 s  ClockTime = 221 s

Time = 0.08
Courant Number mean: 0.92771 max: 1.969
diagonal:  Solving for T, Initial residual = 0, Final residual = 0, No Iterations 0
diagonal:  Solving for T, Initial residual = 0, Final residual = 0, No Iterations 0
diagonal:  Solving for T, Initial residual = 0, Final residual = 0, No Iterations 0
diagonal:  Solving for T, Initial residual = 0, Final residual = 0, No Iterations 0
 T goes from min(T) [0 0 0 0 0 0 0] -0.000233806 to max(T) [0 0 0 0 0 0 0] 0.953857

ExecutionTime = 11.84 s  ClockTime = 232 s

Time = 0.09
Courant Number mean: 0.926783 max: 1.97365
diagonal:  Solving for T, Initial residual = 0, Final residual = 0, No Iterations 0
diagonal:  Solving for T, Initial residual = 0, Final residual = 0, No Iterations 0
diagonal:  Solving for T, Initial residual = 0, Final residual = 0, No Iterations 0
diagonal:  Solving for T, Initial residual = 0, Final residual = 0, No Iterations 0
 T goes from min(T) [0 0 0 0 0 0 0] -0.00832482 to max(T) [0 0 0 0 0 0 0] 0.953977

ExecutionTime = 12.34 s  ClockTime = 242 s

Time = 0.1
Courant Number mean: 0.92575 max: 1.97826
diagonal:  Solving for T, Initial residual = 0, Final residual = 0, No Iterations 0
diagonal:  Solving for T, Initial residual = 0, Final residual = 0, No Iterations 0
diagonal:  Solving for T, Initial residual = 0, Final residual = 0, No Iterations 0
diagonal:  Solving for T, Initial residual = 0, Final residual = 0, No Iterations 0
 T goes from min(T) [0 0 0 0 0 0 0] -0.195751 to max(T) [0 0 0 0 0 0 0] 0.953654

ExecutionTime = 12.83 s  ClockTime = 252 s

Time = 0.11
Courant Number mean: 0.924607 max: 1.98234
diagonal:  Solving for T, Initial residual = 0, Final residual = 0, No Iterations 0
diagonal:  Solving for T, Initial residual = 0, Final residual = 0, No Iterations 0
diagonal:  Solving for T, Initial residual = 0, Final residual = 0, No Iterations 0
diagonal:  Solving for T, Initial residual = 0, Final residual = 0, No Iterations 0
 T goes from min(T) [0 0 0 0 0 0 0] -1.39233 to max(T) [0 0 0 0 0 0 0] 1.69198

ExecutionTime = 13.31 s  ClockTime = 261 s

Time = 0.12
Courant Number mean: 0.92336 max: 1.98659
diagonal:  Solving for T, Initial residual = 0, Final residual = 0, No Iterations 0
diagonal:  Solving for T, Initial residual = 0, Final residual = 0, No Iterations 0
diagonal:  Solving for T, Initial residual = 0, Final residual = 0, No Iterations 0
diagonal:  Solving for T, Initial residual = 0, Final residual = 0, No Iterations 0
 T goes from min(T) [0 0 0 0 0 0 0] -7.66964 to max(T) [0 0 0 0 0 0 0] 7.41905

ExecutionTime = 13.81 s  ClockTime = 271 s

Time = 0.13
Courant Number mean: 0.922004 max: 1.99088
diagonal:  Solving for T, Initial residual = 0, Final residual = 0, No Iterations 0
diagonal:  Solving for T, Initial residual = 0, Final residual = 0, No Iterations 0
diagonal:  Solving for T, Initial residual = 0, Final residual = 0, No Iterations 0
diagonal:  Solving for T, Initial residual = 0, Final residual = 0, No Iterations 0
 T goes from min(T) [0 0 0 0 0 0 0] -34.9618 to max(T) [0 0 0 0 0 0 0] 34.3161

ExecutionTime = 14.34 s  ClockTime = 281 s

Time = 0.14
Courant Number mean: 0.920546 max: 1.99465
diagonal:  Solving for T, Initial residual = 0, Final residual = 0, No Iterations 0
diagonal:  Solving for T, Initial residual = 0, Final residual = 0, No Iterations 0
diagonal:  Solving for T, Initial residual = 0, Final residual = 0, No Iterations 0
diagonal:  Solving for T, Initial residual = 0, Final residual = 0, No Iterations 0
 T goes from min(T) [0 0 0 0 0 0 0] -159.789 to max(T) [0 0 0 0 0 0 0] 154.682

ExecutionTime = 14.81 s  ClockTime = 290 s

Time = 0.15
Courant Number mean: 0.918972 max: 1.99852
diagonal:  Solving for T, Initial residual = 0, Final residual = 0, No Iterations 0
diagonal:  Solving for T, Initial residual = 0, Final residual = 0, No Iterations 0
diagonal:  Solving for T, Initial residual = 0, Final residual = 0, No Iterations 0
diagonal:  Solving for T, Initial residual = 0, Final residual = 0, No Iterations 0
 T goes from min(T) [0 0 0 0 0 0 0] -782.675 to max(T) [0 0 0 0 0 0 0] 761.598

ExecutionTime = 15.31 s  ClockTime = 299 s

Time = 0.16
Courant Number mean: 0.917318 max: 2.00244
diagonal:  Solving for T, Initial residual = 0, Final residual = 0, No Iterations 0
diagonal:  Solving for T, Initial residual = 0, Final residual = 0, No Iterations 0
diagonal:  Solving for T, Initial residual = 0, Final residual = 0, No Iterations 0
diagonal:  Solving for T, Initial residual = 0, Final residual = 0, No Iterations 0
 T goes from min(T) [0 0 0 0 0 0 0] -3334.6 to max(T) [0 0 0 0 0 0 0] 3616.71

ExecutionTime = 15.8 s  ClockTime = 308 s

Time = 0.17
Courant Number mean: 0.915586 max: 2.00631
diagonal:  Solving for T, Initial residual = 0, Final residual = 0, No Iterations 0
diagonal:  Solving for T, Initial residual = 0, Final residual = 0, No Iterations 0
diagonal:  Solving for T, Initial residual = 0, Final residual = 0, No Iterations 0
diagonal:  Solving for T, Initial residual = 0, Final residual = 0, No Iterations 0
 T goes from min(T) [0 0 0 0 0 0 0] -15073.9 to max(T) [0 0 0 0 0 0 0] 14604.8

ExecutionTime = 16.3 s  ClockTime = 318 s

Time = 0.18
Courant Number mean: 0.913772 max: 2.00998
diagonal:  Solving for T, Initial residual = 0, Final residual = 0, No Iterations 0
diagonal:  Solving for T, Initial residual = 0, Final residual = 0, No Iterations 0
diagonal:  Solving for T, Initial residual = 0, Final residual = 0, No Iterations 0
diagonal:  Solving for T, Initial residual = 0, Final residual = 0, No Iterations 0
 T goes from min(T) [0 0 0 0 0 0 0] -66862.3 to max(T) [0 0 0 0 0 0 0] 72688.9

ExecutionTime = 16.78 s  ClockTime = 327 s

Time = 0.19
Courant Number mean: 0.911892 max: 2.01314
diagonal:  Solving for T, Initial residual = 0, Final residual = 0, No Iterations 0
diagonal:  Solving for T, Initial residual = 0, Final residual = 0, No Iterations 0
diagonal:  Solving for T, Initial residual = 0, Final residual = 0, No Iterations 0
diagonal:  Solving for T, Initial residual = 0, Final residual = 0, No Iterations 0
 T goes from min(T) [0 0 0 0 0 0 0] -334492 to max(T) [0 0 0 0 0 0 0] 316750

ExecutionTime = 17.3 s  ClockTime = 337 s

Time = 0.2
Courant Number mean: 0.909935 max: 2.017
diagonal:  Solving for T, Initial residual = 0, Final residual = 0, No Iterations 0
diagonal:  Solving for T, Initial residual = 0, Final residual = 0, No Iterations 0
diagonal:  Solving for T, Initial residual = 0, Final residual = 0, No Iterations 0
diagonal:  Solving for T, Initial residual = 0, Final residual = 0, No Iterations 0
 T goes from min(T) [0 0 0 0 0 0 0] -1.38121e+06 to max(T) [0 0 0 0 0 0 0] 1.41032e+06

ExecutionTime = 17.8 s  ClockTime = 346 s

Time = 0.21
Courant Number mean: 0.907928 max: 2.02033
diagonal:  Solving for T, Initial residual = 0, Final residual = 0, No Iterations 0
diagonal:  Solving for T, Initial residual = 0, Final residual = 0, No Iterations 0
diagonal:  Solving for T, Initial residual = 0, Final residual = 0, No Iterations 0
diagonal:  Solving for T, Initial residual = 0, Final residual = 0, No Iterations 0
 T goes from min(T) [0 0 0 0 0 0 0] -5.85161e+06 to max(T) [0 0 0 0 0 0 0] 5.55627e+06

ExecutionTime = 18.28 s  ClockTime = 356 s

Time = 0.22
Courant Number mean: 0.905848 max: 2.02313
diagonal:  Solving for T, Initial residual = 0, Final residual = 0, No Iterations 0
diagonal:  Solving for T, Initial residual = 0, Final residual = 0, No Iterations 0
diagonal:  Solving for T, Initial residual = 0, Final residual = 0, No Iterations 0
diagonal:  Solving for T, Initial residual = 0, Final residual = 0, No Iterations 0
 T goes from min(T) [0 0 0 0 0 0 0] -2.65414e+07 to max(T) [0 0 0 0 0 0 0] 2.78814e+07

ExecutionTime = 18.78 s  ClockTime = 365 s

Time = 0.23
Courant Number mean: 0.903726 max: 2.02658
diagonal:  Solving for T, Initial residual = 0, Final residual = 0, No Iterations 0
diagonal:  Solving for T, Initial residual = 0, Final residual = 0, No Iterations 0
diagonal:  Solving for T, Initial residual = 0, Final residual = 0, No Iterations 0
diagonal:  Solving for T, Initial residual = 0, Final residual = 0, No Iterations 0
 T goes from min(T) [0 0 0 0 0 0 0] -1.22949e+08 to max(T) [0 0 0 0 0 0 0] 1.1906e+08

ExecutionTime = 19.27 s  ClockTime = 374 s

Time = 0.24
Courant Number mean: 0.901534 max: 2.02956
diagonal:  Solving for T, Initial residual = 0, Final residual = 0, No Iterations 0
diagonal:  Solving for T, Initial residual = 0, Final residual = 0, No Iterations 0
diagonal:  Solving for T, Initial residual = 0, Final residual = 0, No Iterations 0
diagonal:  Solving for T, Initial residual = 0, Final residual = 0, No Iterations 0
 T goes from min(T) [0 0 0 0 0 0 0] -4.85398e+08 to max(T) [0 0 0 0 0 0 0] 4.95777e+08

ExecutionTime = 19.77 s  ClockTime = 382 s

Time = 0.25
Courant Number mean: 0.899302 max: 2.03249
diagonal:  Solving for T, Initial residual = 0, Final residual = 0, No Iterations 0
diagonal:  Solving for T, Initial residual = 0, Final residual = 0, No Iterations 0
diagonal:  Solving for T, Initial residual = 0, Final residual = 0, No Iterations 0
diagonal:  Solving for T, Initial residual = 0, Final residual = 0, No Iterations 0
 T goes from min(T) [0 0 0 0 0 0 0] -2.07948e+09 to max(T) [0 0 0 0 0 0 0] 1.96503e+09

ExecutionTime = 20.27 s  ClockTime = 390 s

Time = 0.26
Courant Number mean: 0.897006 max: 2.03518
diagonal:  Solving for T, Initial residual = 0, Final residual = 0, No Iterations 0
diagonal:  Solving for T, Initial residual = 0, Final residual = 0, No Iterations 0
diagonal:  Solving for T, Initial residual = 0, Final residual = 0, No Iterations 0
diagonal:  Solving for T, Initial residual = 0, Final residual = 0, No Iterations 0
 T goes from min(T) [0 0 0 0 0 0 0] -9.06953e+09 to max(T) [0 0 0 0 0 0 0] 9.60583e+09

ExecutionTime = 20.75 s  ClockTime = 397 s

Time = 0.27
Courant Number mean: 0.894672 max: 2.03788
diagonal:  Solving for T, Initial residual = 0, Final residual = 0, No Iterations 0
diagonal:  Solving for T, Initial residual = 0, Final residual = 0, No Iterations 0
diagonal:  Solving for T, Initial residual = 0, Final residual = 0, No Iterations 0
diagonal:  Solving for T, Initial residual = 0, Final residual = 0, No Iterations 0
 T goes from min(T) [0 0 0 0 0 0 0] -4.08284e+10 to max(T) [0 0 0 0 0 0 0] 3.87582e+10

ExecutionTime = 21.26 s  ClockTime = 405 s

Time = 0.28
Courant Number mean: 0.892286 max: 2.04077
diagonal:  Solving for T, Initial residual = 0, Final residual = 0, No Iterations 0
diagonal:  Solving for T, Initial residual = 0, Final residual = 0, No Iterations 0
diagonal:  Solving for T, Initial residual = 0, Final residual = 0, No Iterations 0
diagonal:  Solving for T, Initial residual = 0, Final residual = 0, No Iterations 0
 T goes from min(T) [0 0 0 0 0 0 0] -1.80986e+11 to max(T) [0 0 0 0 0 0 0] 1.69666e+11

ExecutionTime = 21.77 s  ClockTime = 412 s

Time = 0.29
Courant Number mean: 0.889856 max: 2.04312
diagonal:  Solving for T, Initial residual = 0, Final residual = 0, No Iterations 0
diagonal:  Solving for T, Initial residual = 0, Final residual = 0, No Iterations 0
diagonal:  Solving for T, Initial residual = 0, Final residual = 0, No Iterations 0
diagonal:  Solving for T, Initial residual = 0, Final residual = 0, No Iterations 0
 T goes from min(T) [0 0 0 0 0 0 0] -9.57786e+11 to max(T) [0 0 0 0 0 0 0] 9.78119e+11

ExecutionTime = 22.27 s  ClockTime = 420 s

Time = 0.3
Courant Number mean: 0.887383 max: 2.04535
diagonal:  Solving for T, Initial residual = 0, Final residual = 0, No Iterations 0
diagonal:  Solving for T, Initial residual = 0, Final residual = 0, No Iterations 0
diagonal:  Solving for T, Initial residual = 0, Final residual = 0, No Iterations 0
diagonal:  Solving for T, Initial residual = 0, Final residual = 0, No Iterations 0
 T goes from min(T) [0 0 0 0 0 0 0] -4.85128e+12 to max(T) [0 0 0 0 0 0 0] 5.12787e+12

ExecutionTime = 22.77 s  ClockTime = 427 s

Time = 0.31
Courant Number mean: 0.884864 max: 2.04789
diagonal:  Solving for T, Initial residual = 0, Final residual = 0, No Iterations 0
diagonal:  Solving for T, Initial residual = 0, Final residual = 0, No Iterations 0
diagonal:  Solving for T, Initial residual = 0, Final residual = 0, No Iterations 0
diagonal:  Solving for T, Initial residual = 0, Final residual = 0, No Iterations 0
 T goes from min(T) [0 0 0 0 0 0 0] -2.50874e+13 to max(T) [0 0 0 0 0 0 0] 2.29781e+13

ExecutionTime = 23.29 s  ClockTime = 435 s

Time = 0.32
Courant Number mean: 0.88231 max: 2.04987
diagonal:  Solving for T, Initial residual = 0, Final residual = 0, No Iterations 0
diagonal:  Solving for T, Initial residual = 0, Final residual = 0, No Iterations 0
diagonal:  Solving for T, Initial residual = 0, Final residual = 0, No Iterations 0
diagonal:  Solving for T, Initial residual = 0, Final residual = 0, No Iterations 0
 T goes from min(T) [0 0 0 0 0 0 0] -1.24773e+14 to max(T) [0 0 0 0 0 0 0] 1.2786e+14

ExecutionTime = 23.79 s  ClockTime = 443 s

Time = 0.33
Courant Number mean: 0.879705 max: 2.05176
diagonal:  Solving for T, Initial residual = 0, Final residual = 0, No Iterations 0
diagonal:  Solving for T, Initial residual = 0, Final residual = 0, No Iterations 0
diagonal:  Solving for T, Initial residual = 0, Final residual = 0, No Iterations 0
diagonal:  Solving for T, Initial residual = 0, Final residual = 0, No Iterations 0
 T goes from min(T) [0 0 0 0 0 0 0] -6.83078e+14 to max(T) [0 0 0 0 0 0 0] 6.36946e+14

ExecutionTime = 24.34 s  ClockTime = 451 s

Time = 0.34
Courant Number mean: 0.877075 max: 2.0538
diagonal:  Solving for T, Initial residual = 0, Final residual = 0, No Iterations 0
diagonal:  Solving for T, Initial residual = 0, Final residual = 0, No Iterations 0
diagonal:  Solving for T, Initial residual = 0, Final residual = 0, No Iterations 0
diagonal:  Solving for T, Initial residual = 0, Final residual = 0, No Iterations 0
 T goes from min(T) [0 0 0 0 0 0 0] -3.18484e+15 to max(T) [0 0 0 0 0 0 0] 3.43696e+15

ExecutionTime = 24.83 s  ClockTime = 458 s

Time = 0.35
Courant Number mean: 0.874396 max: 2.05561
diagonal:  Solving for T, Initial residual = 0, Final residual = 0, No Iterations 0
diagonal:  Solving for T, Initial residual = 0, Final residual = 0, No Iterations 0
diagonal:  Solving for T, Initial residual = 0, Final residual = 0, No Iterations 0
diagonal:  Solving for T, Initial residual = 0, Final residual = 0, No Iterations 0
 T goes from min(T) [0 0 0 0 0 0 0] -1.59626e+16 to max(T) [0 0 0 0 0 0 0] 1.50941e+16

ExecutionTime = 25.33 s  ClockTime = 466 s

Time = 0.36
Courant Number mean: 0.871694 max: 2.05751
diagonal:  Solving for T, Initial residual = 0, Final residual = 0, No Iterations 0
diagonal:  Solving for T, Initial residual = 0, Final residual = 0, No Iterations 0
diagonal:  Solving for T, Initial residual = 0, Final residual = 0, No Iterations 0
diagonal:  Solving for T, Initial residual = 0, Final residual = 0, No Iterations 0
 T goes from min(T) [0 0 0 0 0 0 0] -7.33969e+16 to max(T) [0 0 0 0 0 0 0] 7.93547e+16

ExecutionTime = 25.83 s  ClockTime = 473 s

Time = 0.37
Courant Number mean: 0.868946 max: 2.05886
diagonal:  Solving for T, Initial residual = 0, Final residual = 0, No Iterations 0
diagonal:  Solving for T, Initial residual = 0, Final residual = 0, No Iterations 0
diagonal:  Solving for T, Initial residual = 0, Final residual = 0, No Iterations 0
diagonal:  Solving for T, Initial residual = 0, Final residual = 0, No Iterations 0
 T goes from min(T) [0 0 0 0 0 0 0] -4.13757e+17 to max(T) [0 0 0 0 0 0 0] 3.85988e+17

ExecutionTime = 26.33 s  ClockTime = 481 s

Time = 0.38
Courant Number mean: 0.866176 max: 2.06051
diagonal:  Solving for T, Initial residual = 0, Final residual = 0, No Iterations 0
diagonal:  Solving for T, Initial residual = 0, Final residual = 0, No Iterations 0
diagonal:  Solving for T, Initial residual = 0, Final residual = 0, No Iterations 0
diagonal:  Solving for T, Initial residual = 0, Final residual = 0, No Iterations 0
 T goes from min(T) [0 0 0 0 0 0 0] -1.91136e+18 to max(T) [0 0 0 0 0 0 0] 2.00973e+18

ExecutionTime = 26.85 s  ClockTime = 489 s

Time = 0.39
Courant Number mean: 0.863364 max: 2.06204
diagonal:  Solving for T, Initial residual = 0, Final residual = 0, No Iterations 0
diagonal:  Solving for T, Initial residual = 0, Final residual = 0, No Iterations 0
diagonal:  Solving for T, Initial residual = 0, Final residual = 0, No Iterations 0
diagonal:  Solving for T, Initial residual = 0, Final residual = 0, No Iterations 0
 T goes from min(T) [0 0 0 0 0 0 0] -9.05374e+18 to max(T) [0 0 0 0 0 0 0] 8.71602e+18

ExecutionTime = 27.36 s  ClockTime = 496 s

Time = 0.4
Courant Number mean: 0.860526 max: 2.06303
diagonal:  Solving for T, Initial residual = 0, Final residual = 0, No Iterations 0
diagonal:  Solving for T, Initial residual = 0, Final residual = 0, No Iterations 0
diagonal:  Solving for T, Initial residual = 0, Final residual = 0, No Iterations 0
diagonal:  Solving for T, Initial residual = 0, Final residual = 0, No Iterations 0
 T goes from min(T) [0 0 0 0 0 0 0] -4.08913e+19 to max(T) [0 0 0 0 0 0 0] 4.38741e+19

ExecutionTime = 27.87 s  ClockTime = 504 s

Time = 0.41
Courant Number mean: 0.857662 max: 2.06418
diagonal:  Solving for T, Initial residual = 0, Final residual = 0, No Iterations 0
diagonal:  Solving for T, Initial residual = 0, Final residual = 0, No Iterations 0
diagonal:  Solving for T, Initial residual = 0, Final residual = 0, No Iterations 0
diagonal:  Solving for T, Initial residual = 0, Final residual = 0, No Iterations 0
 T goes from min(T) [0 0 0 0 0 0 0] -2.23271e+20 to max(T) [0 0 0 0 0 0 0] 2.0889e+20

ExecutionTime = 28.41 s  ClockTime = 512 s

Time = 0.42
Courant Number mean: 0.85476 max: 2.06534
diagonal:  Solving for T, Initial residual = 0, Final residual = 0, No Iterations 0
diagonal:  Solving for T, Initial residual = 0, Final residual = 0, No Iterations 0
diagonal:  Solving for T, Initial residual = 0, Final residual = 0, No Iterations 0
diagonal:  Solving for T, Initial residual = 0, Final residual = 0, No Iterations 0
 T goes from min(T) [0 0 0 0 0 0 0] -1.008e+21 to max(T) [0 0 0 0 0 0 0] 1.06389e+21

ExecutionTime = 28.93 s  ClockTime = 520 s

Time = 0.43
Courant Number mean: 0.851835 max: 2.06603
diagonal:  Solving for T, Initial residual = 0, Final residual = 0, No Iterations 0
diagonal:  Solving for T, Initial residual = 0, Final residual = 0, No Iterations 0
diagonal:  Solving for T, Initial residual = 0, Final residual = 0, No Iterations 0
diagonal:  Solving for T, Initial residual = 0, Final residual = 0, No Iterations 0
 T goes from min(T) [0 0 0 0 0 0 0] -4.70601e+21 to max(T) [0 0 0 0 0 0 0] 4.50954e+21

ExecutionTime = 29.51 s  ClockTime = 529 s

Time = 0.44
Courant Number mean: 0.848878 max: 2.06693
diagonal:  Solving for T, Initial residual = 0, Final residual = 0, No Iterations 0
diagonal:  Solving for T, Initial residual = 0, Final residual = 0, No Iterations 0
diagonal:  Solving for T, Initial residual = 0, Final residual = 0, No Iterations 0
diagonal:  Solving for T, Initial residual = 0, Final residual = 0, No Iterations 0
 T goes from min(T) [0 0 0 0 0 0 0] -2.20153e+22 to max(T) [0 0 0 0 0 0 0] 2.26745e+22

ExecutionTime = 30 s  ClockTime = 536 s

Time = 0.45
Courant Number mean: 0.845902 max: 2.06739
diagonal:  Solving for T, Initial residual = 0, Final residual = 0, No Iterations 0
diagonal:  Solving for T, Initial residual = 0, Final residual = 0, No Iterations 0
diagonal:  Solving for T, Initial residual = 0, Final residual = 0, No Iterations 0
diagonal:  Solving for T, Initial residual = 0, Final residual = 0, No Iterations 0
 T goes from min(T) [0 0 0 0 0 0 0] -1.10657e+23 to max(T) [0 0 0 0 0 0 0] 1.03807e+23

ExecutionTime = 30.51 s  ClockTime = 544 s

Time = 0.46
Courant Number mean: 0.84289 max: 2.06826
diagonal:  Solving for T, Initial residual = 0, Final residual = 0, No Iterations 0
diagonal:  Solving for T, Initial residual = 0, Final residual = 0, No Iterations 0
diagonal:  Solving for T, Initial residual = 0, Final residual = 0, No Iterations 0
diagonal:  Solving for T, Initial residual = 0, Final residual = 0, No Iterations 0
 T goes from min(T) [0 0 0 0 0 0 0] -4.8182e+23 to max(T) [0 0 0 0 0 0 0] 5.19923e+23

ExecutionTime = 30.99 s  ClockTime = 551 s

Time = 0.47
Courant Number mean: 0.839868 max: 2.06879
diagonal:  Solving for T, Initial residual = 0, Final residual = 0, No Iterations 0
diagonal:  Solving for T, Initial residual = 0, Final residual = 0, No Iterations 0
diagonal:  Solving for T, Initial residual = 0, Final residual = 0, No Iterations 0
diagonal:  Solving for T, Initial residual = 0, Final residual = 0, No Iterations 0
 T goes from min(T) [0 0 0 0 0 0 0] -2.38004e+24 to max(T) [0 0 0 0 0 0 0] 2.34534e+24

ExecutionTime = 31.49 s  ClockTime = 558 s

Time = 0.48
Courant Number mean: 0.836809 max: 2.06878
diagonal:  Solving for T, Initial residual = 0, Final residual = 0, No Iterations 0
diagonal:  Solving for T, Initial residual = 0, Final residual = 0, No Iterations 0
diagonal:  Solving for T, Initial residual = 0, Final residual = 0, No Iterations 0
diagonal:  Solving for T, Initial residual = 0, Final residual = 0, No Iterations 0
 T goes from min(T) [0 0 0 0 0 0 0] -1.14552e+25 to max(T) [0 0 0 0 0 0 0] 1.15225e+25

ExecutionTime = 32.01 s  ClockTime = 566 s

Time = 0.49
Courant Number mean: 0.833737 max: 2.06925
diagonal:  Solving for T, Initial residual = 0, Final residual = 0, No Iterations 0
diagonal:  Solving for T, Initial residual = 0, Final residual = 0, No Iterations 0
diagonal:  Solving for T, Initial residual = 0, Final residual = 0, No Iterations 0
diagonal:  Solving for T, Initial residual = 0, Final residual = 0, No Iterations 0
 T goes from min(T) [0 0 0 0 0 0 0] -5.31709e+25 to max(T) [0 0 0 0 0 0 0] 5.26771e+25

ExecutionTime = 32.6 s  ClockTime = 575 s

Time = 0.5
Courant Number mean: 0.830636 max: 2.0694
diagonal:  Solving for T, Initial residual = 0, Final residual = 0, No Iterations 0
diagonal:  Solving for T, Initial residual = 0, Final residual = 0, No Iterations 0
diagonal:  Solving for T, Initial residual = 0, Final residual = 0, No Iterations 0
diagonal:  Solving for T, Initial residual = 0, Final residual = 0, No Iterations 0
 T goes from min(T) [0 0 0 0 0 0 0] -2.2926e+26 to max(T) [0 0 0 0 0 0 0] 2.36568e+26

ExecutionTime = 33.15 s  ClockTime = 583 s

Time = 0.51
Courant Number mean: 0.82752 max: 2.06901
diagonal:  Solving for T, Initial residual = 0, Final residual = 0, No Iterations 0
diagonal:  Solving for T, Initial residual = 0, Final residual = 0, No Iterations 0
diagonal:  Solving for T, Initial residual = 0, Final residual = 0, No Iterations 0
diagonal:  Solving for T, Initial residual = 0, Final residual = 0, No Iterations 0
 T goes from min(T) [0 0 0 0 0 0 0] -1.19469e+27 to max(T) [0 0 0 0 0 0 0] 1.1594e+27

ExecutionTime = 33.64 s  ClockTime = 591 s

Time = 0.52
Courant Number mean: 0.824378 max: 2.06896
diagonal:  Solving for T, Initial residual = 0, Final residual = 0, No Iterations 0
diagonal:  Solving for T, Initial residual = 0, Final residual = 0, No Iterations 0
diagonal:  Solving for T, Initial residual = 0, Final residual = 0, No Iterations 0
diagonal:  Solving for T, Initial residual = 0, Final residual = 0, No Iterations 0
 T goes from min(T) [0 0 0 0 0 0 0] -5.63531e+27 to max(T) [0 0 0 0 0 0 0] 5.74432e+27

ExecutionTime = 34.15 s  ClockTime = 598 s

Time = 0.53
Courant Number mean: 0.821221 max: 2.06874
diagonal:  Solving for T, Initial residual = 0, Final residual = 0, No Iterations 0
diagonal:  Solving for T, Initial residual = 0, Final residual = 0, No Iterations 0
diagonal:  Solving for T, Initial residual = 0, Final residual = 0, No Iterations 0
diagonal:  Solving for T, Initial residual = 0, Final residual = 0, No Iterations 0
 T goes from min(T) [0 0 0 0 0 0 0] -2.58788e+28 to max(T) [0 0 0 0 0 0 0] 2.53457e+28

ExecutionTime = 34.64 s  ClockTime = 606 s

Time = 0.54
Courant Number mean: 0.818043 max: 2.06846
diagonal:  Solving for T, Initial residual = 0, Final residual = 0, No Iterations 0
diagonal:  Solving for T, Initial residual = 0, Final residual = 0, No Iterations 0
diagonal:  Solving for T, Initial residual = 0, Final residual = 0, No Iterations 0
diagonal:  Solving for T, Initial residual = 0, Final residual = 0, No Iterations 0
 T goes from min(T) [0 0 0 0 0 0 0] -1.08336e+29 to max(T) [0 0 0 0 0 0 0] 1.15112e+29

ExecutionTime = 35.13 s  ClockTime = 613 s

Time = 0.55
Courant Number mean: 0.814841 max: 2.06799
diagonal:  Solving for T, Initial residual = 0, Final residual = 0, No Iterations 0
diagonal:  Solving for T, Initial residual = 0, Final residual = 0, No Iterations 0
diagonal:  Solving for T, Initial residual = 0, Final residual = 0, No Iterations 0
diagonal:  Solving for T, Initial residual = 0, Final residual = 0, No Iterations 0
 T goes from min(T) [0 0 0 0 0 0 0] -5.75819e+29 to max(T) [0 0 0 0 0 0 0] 5.44255e+29

ExecutionTime = 35.63 s  ClockTime = 620 s

Time = 0.56
Courant Number mean: 0.811631 max: 2.06701
diagonal:  Solving for T, Initial residual = 0, Final residual = 0, No Iterations 0
diagonal:  Solving for T, Initial residual = 0, Final residual = 0, No Iterations 0
diagonal:  Solving for T, Initial residual = 0, Final residual = 0, No Iterations 0
diagonal:  Solving for T, Initial residual = 0, Final residual = 0, No Iterations 0
 T goes from min(T) [0 0 0 0 0 0 0] -2.60473e+30 to max(T) [0 0 0 0 0 0 0] 2.74255e+30

ExecutionTime = 36.15 s  ClockTime = 628 s

Time = 0.57
Courant Number mean: 0.808394 max: 2.06671
diagonal:  Solving for T, Initial residual = 0, Final residual = 0, No Iterations 0
diagonal:  Solving for T, Initial residual = 0, Final residual = 0, No Iterations 0
diagonal:  Solving for T, Initial residual = 0, Final residual = 0, No Iterations 0
diagonal:  Solving for T, Initial residual = 0, Final residual = 0, No Iterations 0
 T goes from min(T) [0 0 0 0 0 0 0] -1.21053e+31 to max(T) [0 0 0 0 0 0 0] 1.14739e+31

ExecutionTime = 36.69 s  ClockTime = 636 s

Time = 0.58
Courant Number mean: 0.805151 max: 2.06587
diagonal:  Solving for T, Initial residual = 0, Final residual = 0, No Iterations 0
diagonal:  Solving for T, Initial residual = 0, Final residual = 0, No Iterations 0
diagonal:  Solving for T, Initial residual = 0, Final residual = 0, No Iterations 0
diagonal:  Solving for T, Initial residual = 0, Final residual = 0, No Iterations 0
 T goes from min(T) [0 0 0 0 0 0 0] -5.07648e+31 to max(T) [0 0 0 0 0 0 0] 5.21505e+31

ExecutionTime = 37.28 s  ClockTime = 645 s

Time = 0.59
Courant Number mean: 0.801882 max: 2.0645
diagonal:  Solving for T, Initial residual = 0, Final residual = 0, No Iterations 0
diagonal:  Solving for T, Initial residual = 0, Final residual = 0, No Iterations 0
diagonal:  Solving for T, Initial residual = 0, Final residual = 0, No Iterations 0
diagonal:  Solving for T, Initial residual = 0, Final residual = 0, No Iterations 0
 T goes from min(T) [0 0 0 0 0 0 0] -2.63376e+32 to max(T) [0 0 0 0 0 0 0] 2.55435e+32

ExecutionTime = 37.79 s  ClockTime = 653 s

Time = 0.6
Courant Number mean: 0.79861 max: 2.06369
diagonal:  Solving for T, Initial residual = 0, Final residual = 0, No Iterations 0
diagonal:  Solving for T, Initial residual = 0, Final residual = 0, No Iterations 0
diagonal:  Solving for T, Initial residual = 0, Final residual = 0, No Iterations 0
diagonal:  Solving for T, Initial residual = 0, Final residual = 0, No Iterations 0
 T goes from min(T) [0 0 0 0 0 0 0] -1.20133e+33 to max(T) [0 0 0 0 0 0 0] 1.23744e+33

ExecutionTime = 38.28 s  ClockTime = 660 s

Time = 0.61
Courant Number mean: 0.795311 max: 2.06248
diagonal:  Solving for T, Initial residual = 0, Final residual = 0, No Iterations 0
diagonal:  Solving for T, Initial residual = 0, Final residual = 0, No Iterations 0
diagonal:  Solving for T, Initial residual = 0, Final residual = 0, No Iterations 0
diagonal:  Solving for T, Initial residual = 0, Final residual = 0, No Iterations 0
 T goes from min(T) [0 0 0 0 0 0 0] -5.35252e+33 to max(T) [0 0 0 0 0 0 0] 5.20812e+33

ExecutionTime = 38.78 s  ClockTime = 668 s

Time = 0.62
Courant Number mean: 0.792015 max: 2.06104
diagonal:  Solving for T, Initial residual = 0, Final residual = 0, No Iterations 0
diagonal:  Solving for T, Initial residual = 0, Final residual = 0, No Iterations 0
diagonal:  Solving for T, Initial residual = 0, Final residual = 0, No Iterations 0
diagonal:  Solving for T, Initial residual = 0, Final residual = 0, No Iterations 0
 T goes from min(T) [0 0 0 0 0 0 0] -2.06049e+34 to max(T) [0 0 0 0 0 0 0] 2.0994e+34

ExecutionTime = 39.29 s  ClockTime = 675 s

Time = 0.63
Courant Number mean: 0.788692 max: 2.05961
diagonal:  Solving for T, Initial residual = 0, Final residual = 0, No Iterations 0
diagonal:  Solving for T, Initial residual = 0, Final residual = 0, No Iterations 0
diagonal:  Solving for T, Initial residual = 0, Final residual = 0, No Iterations 0
diagonal:  Solving for T, Initial residual = 0, Final residual = 0, No Iterations 0
 T goes from min(T) [0 0 0 0 0 0 0] -1.01755e+35 to max(T) [0 0 0 0 0 0 0] 1.00168e+35

ExecutionTime = 39.78 s  ClockTime = 683 s

Time = 0.64
Courant Number mean: 0.78537 max: 2.05784
diagonal:  Solving for T, Initial residual = 0, Final residual = 0, No Iterations 0
diagonal:  Solving for T, Initial residual = 0, Final residual = 0, No Iterations 0
diagonal:  Solving for T, Initial residual = 0, Final residual = 0, No Iterations 0
diagonal:  Solving for T, Initial residual = 0, Final residual = 0, No Iterations 0
 T goes from min(T) [0 0 0 0 0 0 0] -4.65723e+35 to max(T) [0 0 0 0 0 0 0] 4.72915e+35

ExecutionTime = 40.33 s  ClockTime = 691 s

Time = 0.65
Courant Number mean: 0.78203 max: 2.05657
diagonal:  Solving for T, Initial residual = 0, Final residual = 0, No Iterations 0
diagonal:  Solving for T, Initial residual = 0, Final residual = 0, No Iterations 0
diagonal:  Solving for T, Initial residual = 0, Final residual = 0, No Iterations 0
diagonal:  Solving for T, Initial residual = 0, Final residual = 0, No Iterations 0
 T goes from min(T) [0 0 0 0 0 0 0] -2.01691e+36 to max(T) [0 0 0 0 0 0 0] 1.98665e+36

ExecutionTime = 40.84 s  ClockTime = 698 s

Time = 0.66
Courant Number mean: 0.778679 max: 2.05477
diagonal:  Solving for T, Initial residual = 0, Final residual = 0, No Iterations 0
diagonal:  Solving for T, Initial residual = 0, Final residual = 0, No Iterations 0
diagonal:  Solving for T, Initial residual = 0, Final residual = 0, No Iterations 0
diagonal:  Solving for T, Initial residual = 0, Final residual = 0, No Iterations 0
 T goes from min(T) [0 0 0 0 0 0 0] -7.69158e+36 to max(T) [0 0 0 0 0 0 0] 7.82072e+36

ExecutionTime = 41.33 s  ClockTime = 706 s

Time = 0.67
Courant Number mean: 0.775327 max: 2.05248
diagonal:  Solving for T, Initial residual = 0, Final residual = 0, No Iterations 0
diagonal:  Solving for T, Initial residual = 0, Final residual = 0, No Iterations 0
diagonal:  Solving for T, Initial residual = 0, Final residual = 0, No Iterations 0
diagonal:  Solving for T, Initial residual = 0, Final residual = 0, No Iterations 0
 T goes from min(T) [0 0 0 0 0 0 0] -3.18326e+37 to max(T) [0 0 0 0 0 0 0] 3.19055e+37

ExecutionTime = 41.83 s  ClockTime = 713 s

Time = 0.68
Courant Number mean: 0.771956 max: 2.05083
diagonal:  Solving for T, Initial residual = 0, Final residual = 0, No Iterations 0
diagonal:  Solving for T, Initial residual = 0, Final residual = 0, No Iterations 0
diagonal:  Solving for T, Initial residual = 0, Final residual = 0, No Iterations 0
diagonal:  Solving for T, Initial residual = 0, Final residual = 0, No Iterations 0
 T goes from min(T) [0 0 0 0 0 0 0] -1.46495e+38 to max(T) [0 0 0 0 0 0 0] 1.46999e+38

ExecutionTime = 42.34 s  ClockTime = 721 s

Time = 0.69
Courant Number mean: 0.768587 max: 2.04866
diagonal:  Solving for T, Initial residual = 0, Final residual = 0, No Iterations 0
diagonal:  Solving for T, Initial residual = 0, Final residual = 0, No Iterations 0
diagonal:  Solving for T, Initial residual = 0, Final residual = 0, No Iterations 0
diagonal:  Solving for T, Initial residual = 0, Final residual = 0, No Iterations 0
 T goes from min(T) [0 0 0 0 0 0 0] -6.25131e+38 to max(T) [0 0 0 0 0 0 0] 6.20538e+38

ExecutionTime = 42.85 s  ClockTime = 729 s

Time = 0.7
Courant Number mean: 0.765201 max: 2.0461
diagonal:  Solving for T, Initial residual = 0, Final residual = 0, No Iterations 0
diagonal:  Solving for T, Initial residual = 0, Final residual = 0, No Iterations 0
diagonal:  Solving for T, Initial residual = 0, Final residual = 0, No Iterations 0
diagonal:  Solving for T, Initial residual = 0, Final residual = 0, No Iterations 0
 T goes from min(T) [0 0 0 0 0 0 0] -2.37829e+39 to max(T) [0 0 0 0 0 0 0] 2.41776e+39

ExecutionTime = 43.33 s  ClockTime = 735 s

Time = 0.71
Courant Number mean: 0.761819 max: 2.04383
diagonal:  Solving for T, Initial residual = 0, Final residual = 0, No Iterations 0
diagonal:  Solving for T, Initial residual = 0, Final residual = 0, No Iterations 0
diagonal:  Solving for T, Initial residual = 0, Final residual = 0, No Iterations 0
diagonal:  Solving for T, Initial residual = 0, Final residual = 0, No Iterations 0
 T goes from min(T) [0 0 0 0 0 0 0] -8.62632e+39 to max(T) [0 0 0 0 0 0 0] 8.25224e+39

ExecutionTime = 43.83 s  ClockTime = 743 s

Time = 0.72
Courant Number mean: 0.758425 max: 2.04129
diagonal:  Solving for T, Initial residual = 0, Final residual = 0, No Iterations 0
diagonal:  Solving for T, Initial residual = 0, Final residual = 0, No Iterations 0
diagonal:  Solving for T, Initial residual = 0, Final residual = 0, No Iterations 0
diagonal:  Solving for T, Initial residual = 0, Final residual = 0, No Iterations 0
 T goes from min(T) [0 0 0 0 0 0 0] -3.55327e+40 to max(T) [0 0 0 0 0 0 0] 3.92054e+40

ExecutionTime = 44.34 s  ClockTime = 749 s

Time = 0.73
Courant Number mean: 0.755035 max: 2.03893
diagonal:  Solving for T, Initial residual = 0, Final residual = 0, No Iterations 0
diagonal:  Solving for T, Initial residual = 0, Final residual = 0, No Iterations 0
diagonal:  Solving for T, Initial residual = 0, Final residual = 0, No Iterations 0
diagonal:  Solving for T, Initial residual = 0, Final residual = 0, No Iterations 0
 T goes from min(T) [0 0 0 0 0 0 0] -1.63137e+41 to max(T) [0 0 0 0 0 0 0] 1.46633e+41

ExecutionTime = 44.82 s  ClockTime = 755 s

Time = 0.74
Courant Number mean: 0.751633 max: 2.0362
diagonal:  Solving for T, Initial residual = 0, Final residual = 0, No Iterations 0
diagonal:  Solving for T, Initial residual = 0, Final residual = 0, No Iterations 0
diagonal:  Solving for T, Initial residual = 0, Final residual = 0, No Iterations 0
diagonal:  Solving for T, Initial residual = 0, Final residual = 0, No Iterations 0
 T goes from min(T) [0 0 0 0 0 0 0] -5.52173e+41 to max(T) [0 0 0 0 0 0 0] 6.16277e+41

ExecutionTime = 45.32 s  ClockTime = 762 s

Time = 0.75
Courant Number mean: 0.748236 max: 2.03309
diagonal:  Solving for T, Initial residual = 0, Final residual = 0, No Iterations 0
diagonal:  Solving for T, Initial residual = 0, Final residual = 0, No Iterations 0
diagonal:  Solving for T, Initial residual = 0, Final residual = 0, No Iterations 0
diagonal:  Solving for T, Initial residual = 0, Final residual = 0, No Iterations 0
 T goes from min(T) [0 0 0 0 0 0 0] -2.08385e+42 to max(T) [0 0 0 0 0 0 0] 1.87121e+42

ExecutionTime = 45.81 s  ClockTime = 768 s

Time = 0.76
Courant Number mean: 0.744833 max: 2.03051
diagonal:  Solving for T, Initial residual = 0, Final residual = 0, No Iterations 0
diagonal:  Solving for T, Initial residual = 0, Final residual = 0, No Iterations 0
diagonal:  Solving for T, Initial residual = 0, Final residual = 0, No Iterations 0
diagonal:  Solving for T, Initial residual = 0, Final residual = 0, No Iterations 0
 T goes from min(T) [0 0 0 0 0 0 0] -7.6629e+42 to max(T) [0 0 0 0 0 0 0] 8.00346e+42

ExecutionTime = 46.3 s  ClockTime = 775 s

Time = 0.77
Courant Number mean: 0.741434 max: 2.02743
diagonal:  Solving for T, Initial residual = 0, Final residual = 0, No Iterations 0
diagonal:  Solving for T, Initial residual = 0, Final residual = 0, No Iterations 0
diagonal:  Solving for T, Initial residual = 0, Final residual = 0, No Iterations 0
diagonal:  Solving for T, Initial residual = 0, Final residual = 0, No Iterations 0
 T goes from min(T) [0 0 0 0 0 0 0] -3.25512e+43 to max(T) [0 0 0 0 0 0 0] 3.07453e+43

ExecutionTime = 46.76 s  ClockTime = 781 s

Time = 0.78
Courant Number mean: 0.738035 max: 2.02384
diagonal:  Solving for T, Initial residual = 0, Final residual = 0, No Iterations 0
diagonal:  Solving for T, Initial residual = 0, Final residual = 0, No Iterations 0
diagonal:  Solving for T, Initial residual = 0, Final residual = 0, No Iterations 0
diagonal:  Solving for T, Initial residual = 0, Final residual = 0, No Iterations 0
 T goes from min(T) [0 0 0 0 0 0 0] -1.12431e+44 to max(T) [0 0 0 0 0 0 0] 1.19086e+44

ExecutionTime = 47.33 s  ClockTime = 788 s

Time = 0.79
Courant Number mean: 0.734635 max: 2.02087
diagonal:  Solving for T, Initial residual = 0, Final residual = 0, No Iterations 0
diagonal:  Solving for T, Initial residual = 0, Final residual = 0, No Iterations 0
diagonal:  Solving for T, Initial residual = 0, Final residual = 0, No Iterations 0
diagonal:  Solving for T, Initial residual = 0, Final residual = 0, No Iterations 0
 T goes from min(T) [0 0 0 0 0 0 0] -3.90385e+44 to max(T) [0 0 0 0 0 0 0] 3.69002e+44

ExecutionTime = 47.82 s  ClockTime = 794 s

Time = 0.8
Courant Number mean: 0.731243 max: 2.01743
diagonal:  Solving for T, Initial residual = 0, Final residual = 0, No Iterations 0
diagonal:  Solving for T, Initial residual = 0, Final residual = 0, No Iterations 0
diagonal:  Solving for T, Initial residual = 0, Final residual = 0, No Iterations 0
diagonal:  Solving for T, Initial residual = 0, Final residual = 0, No Iterations 0
 T goes from min(T) [0 0 0 0 0 0 0] -1.33403e+45 to max(T) [0 0 0 0 0 0 0] 1.26859e+45

ExecutionTime = 48.3 s  ClockTime = 801 s

Time = 0.81
Courant Number mean: 0.727848 max: 2.01401
diagonal:  Solving for T, Initial residual = 0, Final residual = 0, No Iterations 0
diagonal:  Solving for T, Initial residual = 0, Final residual = 0, No Iterations 0
diagonal:  Solving for T, Initial residual = 0, Final residual = 0, No Iterations 0
diagonal:  Solving for T, Initial residual = 0, Final residual = 0, No Iterations 0
 T goes from min(T) [0 0 0 0 0 0 0] -5.01265e+45 to max(T) [0 0 0 0 0 0 0] 5.15264e+45

ExecutionTime = 48.8 s  ClockTime = 807 s

Time = 0.82
Courant Number mean: 0.724468 max: 2.0104
diagonal:  Solving for T, Initial residual = 0, Final residual = 0, No Iterations 0
diagonal:  Solving for T, Initial residual = 0, Final residual = 0, No Iterations 0
diagonal:  Solving for T, Initial residual = 0, Final residual = 0, No Iterations 0
diagonal:  Solving for T, Initial residual = 0, Final residual = 0, No Iterations 0
 T goes from min(T) [0 0 0 0 0 0 0] -1.80883e+46 to max(T) [0 0 0 0 0 0 0] 1.77031e+46

ExecutionTime = 49.31 s  ClockTime = 814 s

Time = 0.83
Courant Number mean: 0.721087 max: 2.00647
diagonal:  Solving for T, Initial residual = 0, Final residual = 0, No Iterations 0
diagonal:  Solving for T, Initial residual = 0, Final residual = 0, No Iterations 0
diagonal:  Solving for T, Initial residual = 0, Final residual = 0, No Iterations 0
diagonal:  Solving for T, Initial residual = 0, Final residual = 0, No Iterations 0
 T goes from min(T) [0 0 0 0 0 0 0] -5.63216e+46 to max(T) [0 0 0 0 0 0 0] 5.69652e+46

ExecutionTime = 49.81 s  ClockTime = 820 s

Time = 0.84
Courant Number mean: 0.717718 max: 2.00301
diagonal:  Solving for T, Initial residual = 0, Final residual = 0, No Iterations 0
diagonal:  Solving for T, Initial residual = 0, Final residual = 0, No Iterations 0
diagonal:  Solving for T, Initial residual = 0, Final residual = 0, No Iterations 0
diagonal:  Solving for T, Initial residual = 0, Final residual = 0, No Iterations 0
 T goes from min(T) [0 0 0 0 0 0 0] -1.79042e+47 to max(T) [0 0 0 0 0 0 0] 1.77486e+47

ExecutionTime = 50.3 s  ClockTime = 827 s

Time = 0.85
Courant Number mean: 0.714356 max: 1.99905
diagonal:  Solving for T, Initial residual = 0, Final residual = 0, No Iterations 0
diagonal:  Solving for T, Initial residual = 0, Final residual = 0, No Iterations 0
diagonal:  Solving for T, Initial residual = 0, Final residual = 0, No Iterations 0
diagonal:  Solving for T, Initial residual = 0, Final residual = 0, No Iterations 0
 T goes from min(T) [0 0 0 0 0 0 0] -5.97284e+47 to max(T) [0 0 0 0 0 0 0] 6.62606e+47

ExecutionTime = 50.8 s  ClockTime = 833 s

Time = 0.86
Courant Number mean: 0.711006 max: 1.99462
diagonal:  Solving for T, Initial residual = 0, Final residual = 0, No Iterations 0
diagonal:  Solving for T, Initial residual = 0, Final residual = 0, No Iterations 0
diagonal:  Solving for T, Initial residual = 0, Final residual = 0, No Iterations 0
diagonal:  Solving for T, Initial residual = 0, Final residual = 0, No Iterations 0
 T goes from min(T) [0 0 0 0 0 0 0] -2.21485e+48 to max(T) [0 0 0 0 0 0 0] 2.00994e+48

ExecutionTime = 51.3 s  ClockTime = 840 s

Time = 0.87
Courant Number mean: 0.707672 max: 1.99081
diagonal:  Solving for T, Initial residual = 0, Final residual = 0, No Iterations 0
diagonal:  Solving for T, Initial residual = 0, Final residual = 0, No Iterations 0
diagonal:  Solving for T, Initial residual = 0, Final residual = 0, No Iterations 0
diagonal:  Solving for T, Initial residual = 0, Final residual = 0, No Iterations 0
 T goes from min(T) [0 0 0 0 0 0 0] -6.56222e+48 to max(T) [0 0 0 0 0 0 0] 6.65139e+48

ExecutionTime = 51.79 s  ClockTime = 846 s

Time = 0.88
Courant Number mean: 0.704346 max: 1.98652
diagonal:  Solving for T, Initial residual = 0, Final residual = 0, No Iterations 0
diagonal:  Solving for T, Initial residual = 0, Final residual = 0, No Iterations 0
diagonal:  Solving for T, Initial residual = 0, Final residual = 0, No Iterations 0
diagonal:  Solving for T, Initial residual = 0, Final residual = 0, No Iterations 0
 T goes from min(T) [0 0 0 0 0 0 0] -1.84301e+49 to max(T) [0 0 0 0 0 0 0] 2.05016e+49

ExecutionTime = 52.28 s  ClockTime = 852 s

Time = 0.89
Courant Number mean: 0.701037 max: 1.98214
diagonal:  Solving for T, Initial residual = 0, Final residual = 0, No Iterations 0
diagonal:  Solving for T, Initial residual = 0, Final residual = 0, No Iterations 0
diagonal:  Solving for T, Initial residual = 0, Final residual = 0, No Iterations 0
diagonal:  Solving for T, Initial residual = 0, Final residual = 0, No Iterations 0
 T goes from min(T) [0 0 0 0 0 0 0] -5.73237e+49 to max(T) [0 0 0 0 0 0 0] 6.4903e+49

ExecutionTime = 52.8 s  ClockTime = 859 s

Time = 0.9
Courant Number mean: 0.697743 max: 1.9777
diagonal:  Solving for T, Initial residual = 0, Final residual = 0, No Iterations 0
diagonal:  Solving for T, Initial residual = 0, Final residual = 0, No Iterations 0
diagonal:  Solving for T, Initial residual = 0, Final residual = 0, No Iterations 0
diagonal:  Solving for T, Initial residual = 0, Final residual = 0, No Iterations 0
 T goes from min(T) [0 0 0 0 0 0 0] -2.06032e+50 to max(T) [0 0 0 0 0 0 0] 1.80862e+50

ExecutionTime = 53.29 s  ClockTime = 865 s

Time = 0.91
Courant Number mean: 0.69447 max: 1.97295
diagonal:  Solving for T, Initial residual = 0, Final residual = 0, No Iterations 0
diagonal:  Solving for T, Initial residual = 0, Final residual = 0, No Iterations 0
diagonal:  Solving for T, Initial residual = 0, Final residual = 0, No Iterations 0
diagonal:  Solving for T, Initial residual = 0, Final residual = 0, No Iterations 0
 T goes from min(T) [0 0 0 0 0 0 0] -5.9311e+50 to max(T) [0 0 0 0 0 0 0] 5.95375e+50

ExecutionTime = 53.87 s  ClockTime = 873 s

Time = 0.92
Courant Number mean: 0.691215 max: 1.96866
diagonal:  Solving for T, Initial residual = 0, Final residual = 0, No Iterations 0
diagonal:  Solving for T, Initial residual = 0, Final residual = 0, No Iterations 0
diagonal:  Solving for T, Initial residual = 0, Final residual = 0, No Iterations 0
diagonal:  Solving for T, Initial residual = 0, Final residual = 0, No Iterations 0
 T goes from min(T) [0 0 0 0 0 0 0] -1.71462e+51 to max(T) [0 0 0 0 0 0 0] 1.76306e+51

ExecutionTime = 54.36 s  ClockTime = 879 s

Time = 0.93
Courant Number mean: 0.687982 max: 1.9639
diagonal:  Solving for T, Initial residual = 0, Final residual = 0, No Iterations 0
diagonal:  Solving for T, Initial residual = 0, Final residual = 0, No Iterations 0
diagonal:  Solving for T, Initial residual = 0, Final residual = 0, No Iterations 0
diagonal:  Solving for T, Initial residual = 0, Final residual = 0, No Iterations 0
 T goes from min(T) [0 0 0 0 0 0 0] -4.60536e+51 to max(T) [0 0 0 0 0 0 0] 4.79451e+51

ExecutionTime = 54.86 s  ClockTime = 886 s

Time = 0.94
Courant Number mean: 0.684773 max: 1.95868
diagonal:  Solving for T, Initial residual = 0, Final residual = 0, No Iterations 0
diagonal:  Solving for T, Initial residual = 0, Final residual = 0, No Iterations 0
diagonal:  Solving for T, Initial residual = 0, Final residual = 0, No Iterations 0
diagonal:  Solving for T, Initial residual = 0, Final residual = 0, No Iterations 0
 T goes from min(T) [0 0 0 0 0 0 0] -1.43984e+52 to max(T) [0 0 0 0 0 0 0] 1.35553e+52

ExecutionTime = 55.35 s  ClockTime = 892 s

Time = 0.95
Courant Number mean: 0.681591 max: 1.95404
diagonal:  Solving for T, Initial residual = 0, Final residual = 0, No Iterations 0
diagonal:  Solving for T, Initial residual = 0, Final residual = 0, No Iterations 0
diagonal:  Solving for T, Initial residual = 0, Final residual = 0, No Iterations 0
diagonal:  Solving for T, Initial residual = 0, Final residual = 0, No Iterations 0
 T goes from min(T) [0 0 0 0 0 0 0] -4.00324e+52 to max(T) [0 0 0 0 0 0 0] 4.24558e+52

ExecutionTime = 55.86 s  ClockTime = 899 s

Time = 0.96
Courant Number mean: 0.678432 max: 1.94897
diagonal:  Solving for T, Initial residual = 0, Final residual = 0, No Iterations 0
diagonal:  Solving for T, Initial residual = 0, Final residual = 0, No Iterations 0
diagonal:  Solving for T, Initial residual = 0, Final residual = 0, No Iterations 0
diagonal:  Solving for T, Initial residual = 0, Final residual = 0, No Iterations 0
 T goes from min(T) [0 0 0 0 0 0 0] -1.19045e+53 to max(T) [0 0 0 0 0 0 0] 1.11793e+53

ExecutionTime = 56.36 s  ClockTime = 905 s

Time = 0.97
Courant Number mean: 0.675306 max: 1.94373
diagonal:  Solving for T, Initial residual = 0, Final residual = 0, No Iterations 0
diagonal:  Solving for T, Initial residual = 0, Final residual = 0, No Iterations 0
diagonal:  Solving for T, Initial residual = 0, Final residual = 0, No Iterations 0
diagonal:  Solving for T, Initial residual = 0, Final residual = 0, No Iterations 0
 T goes from min(T) [0 0 0 0 0 0 0] -2.71589e+53 to max(T) [0 0 0 0 0 0 0] 2.97378e+53

ExecutionTime = 56.84 s  ClockTime = 912 s

Time = 0.98
Courant Number mean: 0.67221 max: 1.93852
diagonal:  Solving for T, Initial residual = 0, Final residual = 0, No Iterations 0
diagonal:  Solving for T, Initial residual = 0, Final residual = 0, No Iterations 0
diagonal:  Solving for T, Initial residual = 0, Final residual = 0, No Iterations 0
diagonal:  Solving for T, Initial residual = 0, Final residual = 0, No Iterations 0
 T goes from min(T) [0 0 0 0 0 0 0] -7.85389e+53 to max(T) [0 0 0 0 0 0 0] 7.48549e+53

ExecutionTime = 57.36 s  ClockTime = 918 s

Time = 0.99
Courant Number mean: 0.669147 max: 1.93294
diagonal:  Solving for T, Initial residual = 0, Final residual = 0, No Iterations 0
diagonal:  Solving for T, Initial residual = 0, Final residual = 0, No Iterations 0
diagonal:  Solving for T, Initial residual = 0, Final residual = 0, No Iterations 0
diagonal:  Solving for T, Initial residual = 0, Final residual = 0, No Iterations 0
 T goes from min(T) [0 0 0 0 0 0 0] -1.98043e+54 to max(T) [0 0 0 0 0 0 0] 2.26841e+54

ExecutionTime = 57.92 s  ClockTime = 926 s

Time = 1
Courant Number mean: 0.666127 max: 1.92713
diagonal:  Solving for T, Initial residual = 0, Final residual = 0, No Iterations 0
diagonal:  Solving for T, Initial residual = 0, Final residual = 0, No Iterations 0
diagonal:  Solving for T, Initial residual = 0, Final residual = 0, No Iterations 0
diagonal:  Solving for T, Initial residual = 0, Final residual = 0, No Iterations 0
 T goes from min(T) [0 0 0 0 0 0 0] -5.9663e+54 to max(T) [0 0 0 0 0 0 0] 5.16339e+54

ExecutionTime = 58.44 s  ClockTime = 932 s

Time = 1.01
Courant Number mean: 0.663137 max: 1.92087
diagonal:  Solving for T, Initial residual = 0, Final residual = 0, No Iterations 0
diagonal:  Solving for T, Initial residual = 0, Final residual = 0, No Iterations 0
diagonal:  Solving for T, Initial residual = 0, Final residual = 0, No Iterations 0
diagonal:  Solving for T, Initial residual = 0, Final residual = 0, No Iterations 0
 T goes from min(T) [0 0 0 0 0 0 0] -1.18051e+55 to max(T) [0 0 0 0 0 0 0] 1.38176e+55

ExecutionTime = 58.94 s  ClockTime = 939 s

Time = 1.02
Courant Number mean: 0.6602 max: 1.91418
diagonal:  Solving for T, Initial residual = 0, Final residual = 0, No Iterations 0
diagonal:  Solving for T, Initial residual = 0, Final residual = 0, No Iterations 0
diagonal:  Solving for T, Initial residual = 0, Final residual = 0, No Iterations 0
diagonal:  Solving for T, Initial residual = 0, Final residual = 0, No Iterations 0
 T goes from min(T) [0 0 0 0 0 0 0] -3.32111e+55 to max(T) [0 0 0 0 0 0 0] 3.19656e+55

ExecutionTime = 59.44 s  ClockTime = 945 s

Time = 1.03
Courant Number mean: 0.657304 max: 1.90707
diagonal:  Solving for T, Initial residual = 0, Final residual = 0, No Iterations 0
diagonal:  Solving for T, Initial residual = 0, Final residual = 0, No Iterations 0
diagonal:  Solving for T, Initial residual = 0, Final residual = 0, No Iterations 0
diagonal:  Solving for T, Initial residual = 0, Final residual = 0, No Iterations 0
 T goes from min(T) [0 0 0 0 0 0 0] -8.34136e+55 to max(T) [0 0 0 0 0 0 0] 8.71155e+55

ExecutionTime = 59.93 s  ClockTime = 952 s

Time = 1.04
Courant Number mean: 0.654463 max: 1.89954
diagonal:  Solving for T, Initial residual = 0, Final residual = 0, No Iterations 0
diagonal:  Solving for T, Initial residual = 0, Final residual = 0, No Iterations 0
diagonal:  Solving for T, Initial residual = 0, Final residual = 0, No Iterations 0
diagonal:  Solving for T, Initial residual = 0, Final residual = 0, No Iterations 0
 T goes from min(T) [0 0 0 0 0 0 0] -2.12851e+56 to max(T) [0 0 0 0 0 0 0] 1.97048e+56

ExecutionTime = 60.42 s  ClockTime = 958 s

Time = 1.05
Courant Number mean: 0.651678 max: 1.8916
diagonal:  Solving for T, Initial residual = 0, Final residual = 0, No Iterations 0
diagonal:  Solving for T, Initial residual = 0, Final residual = 0, No Iterations 0
diagonal:  Solving for T, Initial residual = 0, Final residual = 0, No Iterations 0
diagonal:  Solving for T, Initial residual = 0, Final residual = 0, No Iterations 0
 T goes from min(T) [0 0 0 0 0 0 0] -4.32704e+56 to max(T) [0 0 0 0 0 0 0] 4.54408e+56

ExecutionTime = 60.91 s  ClockTime = 965 s

Time = 1.06
Courant Number mean: 0.648955 max: 1.88325
diagonal:  Solving for T, Initial residual = 0, Final residual = 0, No Iterations 0
diagonal:  Solving for T, Initial residual = 0, Final residual = 0, No Iterations 0
diagonal:  Solving for T, Initial residual = 0, Final residual = 0, No Iterations 0
diagonal:  Solving for T, Initial residual = 0, Final residual = 0, No Iterations 0
 T goes from min(T) [0 0 0 0 0 0 0] -9.82264e+56 to max(T) [0 0 0 0 0 0 0] 1.03068e+57

ExecutionTime = 61.45 s  ClockTime = 972 s

Time = 1.07
Courant Number mean: 0.646326 max: 1.87451
diagonal:  Solving for T, Initial residual = 0, Final residual = 0, No Iterations 0
diagonal:  Solving for T, Initial residual = 0, Final residual = 0, No Iterations 0
diagonal:  Solving for T, Initial residual = 0, Final residual = 0, No Iterations 0
diagonal:  Solving for T, Initial residual = 0, Final residual = 0, No Iterations 0
 T goes from min(T) [0 0 0 0 0 0 0] -2.52099e+57 to max(T) [0 0 0 0 0 0 0] 2.38765e+57

ExecutionTime = 61.99 s  ClockTime = 979 s

Time = 1.08
Courant Number mean: 0.643784 max: 1.86566
diagonal:  Solving for T, Initial residual = 0, Final residual = 0, No Iterations 0
diagonal:  Solving for T, Initial residual = 0, Final residual = 0, No Iterations 0
diagonal:  Solving for T, Initial residual = 0, Final residual = 0, No Iterations 0
diagonal:  Solving for T, Initial residual = 0, Final residual = 0, No Iterations 0
 T goes from min(T) [0 0 0 0 0 0 0] -5.32948e+57 to max(T) [0 0 0 0 0 0 0] 5.4579e+57

ExecutionTime = 62.54 s  ClockTime = 986 s

Time = 1.09
Courant Number mean: 0.641339 max: 1.85644
diagonal:  Solving for T, Initial residual = 0, Final residual = 0, No Iterations 0
diagonal:  Solving for T, Initial residual = 0, Final residual = 0, No Iterations 0
diagonal:  Solving for T, Initial residual = 0, Final residual = 0, No Iterations 0
diagonal:  Solving for T, Initial residual = 0, Final residual = 0, No Iterations 0
 T goes from min(T) [0 0 0 0 0 0 0] -1.09311e+58 to max(T) [0 0 0 0 0 0 0] 1.04409e+58

ExecutionTime = 63.05 s  ClockTime = 992 s

Time = 1.1
Courant Number mean: 0.63898 max: 1.84685
diagonal:  Solving for T, Initial residual = 0, Final residual = 0, No Iterations 0
diagonal:  Solving for T, Initial residual = 0, Final residual = 0, No Iterations 0
diagonal:  Solving for T, Initial residual = 0, Final residual = 0, No Iterations 0
diagonal:  Solving for T, Initial residual = 0, Final residual = 0, No Iterations 0
 T goes from min(T) [0 0 0 0 0 0 0] -1.99806e+58 to max(T) [0 0 0 0 0 0 0] 2.28422e+58

ExecutionTime = 63.55 s  ClockTime = 999 s

Time = 1.11
Courant Number mean: 0.636721 max: 1.8369
diagonal:  Solving for T, Initial residual = 0, Final residual = 0, No Iterations 0
diagonal:  Solving for T, Initial residual = 0, Final residual = 0, No Iterations 0
diagonal:  Solving for T, Initial residual = 0, Final residual = 0, No Iterations 0
diagonal:  Solving for T, Initial residual = 0, Final residual = 0, No Iterations 0
 T goes from min(T) [0 0 0 0 0 0 0] -5.19601e+58 to max(T) [0 0 0 0 0 0 0] 4.54432e+58

ExecutionTime = 64.05 s  ClockTime = 1006 s

Time = 1.12
Courant Number mean: 0.634555 max: 1.82659
diagonal:  Solving for T, Initial residual = 0, Final residual = 0, No Iterations 0
diagonal:  Solving for T, Initial residual = 0, Final residual = 0, No Iterations 0
diagonal:  Solving for T, Initial residual = 0, Final residual = 0, No Iterations 0
diagonal:  Solving for T, Initial residual = 0, Final residual = 0, No Iterations 0
 T goes from min(T) [0 0 0 0 0 0 0] -9.2351e+58 to max(T) [0 0 0 0 0 0 0] 1.0384e+59

ExecutionTime = 64.57 s  ClockTime = 1012 s

Time = 1.13
Courant Number mean: 0.632483 max: 1.81594
diagonal:  Solving for T, Initial residual = 0, Final residual = 0, No Iterations 0
diagonal:  Solving for T, Initial residual = 0, Final residual = 0, No Iterations 0
diagonal:  Solving for T, Initial residual = 0, Final residual = 0, No Iterations 0
diagonal:  Solving for T, Initial residual = 0, Final residual = 0, No Iterations 0
 T goes from min(T) [0 0 0 0 0 0 0] -1.88747e+59 to max(T) [0 0 0 0 0 0 0] 1.65432e+59

ExecutionTime = 65.08 s  ClockTime = 1019 s

Time = 1.14
Courant Number mean: 0.630508 max: 1.80496
diagonal:  Solving for T, Initial residual = 0, Final residual = 0, No Iterations 0
diagonal:  Solving for T, Initial residual = 0, Final residual = 0, No Iterations 0
diagonal:  Solving for T, Initial residual = 0, Final residual = 0, No Iterations 0
diagonal:  Solving for T, Initial residual = 0, Final residual = 0, No Iterations 0
 T goes from min(T) [0 0 0 0 0 0 0] -3.17462e+59 to max(T) [0 0 0 0 0 0 0] 3.4089e+59

ExecutionTime = 65.57 s  ClockTime = 1026 s

Time = 1.15
Courant Number mean: 0.62863 max: 1.79366
diagonal:  Solving for T, Initial residual = 0, Final residual = 0, No Iterations 0
diagonal:  Solving for T, Initial residual = 0, Final residual = 0, No Iterations 0
diagonal:  Solving for T, Initial residual = 0, Final residual = 0, No Iterations 0
diagonal:  Solving for T, Initial residual = 0, Final residual = 0, No Iterations 0
 T goes from min(T) [0 0 0 0 0 0 0] -7.2276e+59 to max(T) [0 0 0 0 0 0 0] 6.78857e+59

ExecutionTime = 66.1 s  ClockTime = 1032 s

Time = 1.16
Courant Number mean: 0.626848 max: 1.78227
diagonal:  Solving for T, Initial residual = 0, Final residual = 0, No Iterations 0
diagonal:  Solving for T, Initial residual = 0, Final residual = 0, No Iterations 0
diagonal:  Solving for T, Initial residual = 0, Final residual = 0, No Iterations 0
diagonal:  Solving for T, Initial residual = 0, Final residual = 0, No Iterations 0
 T goes from min(T) [0 0 0 0 0 0 0] -1.29227e+60 to max(T) [0 0 0 0 0 0 0] 1.33248e+60

ExecutionTime = 66.62 s  ClockTime = 1039 s

Time = 1.17
Courant Number mean: 0.625165 max: 1.77063
diagonal:  Solving for T, Initial residual = 0, Final residual = 0, No Iterations 0
diagonal:  Solving for T, Initial residual = 0, Final residual = 0, No Iterations 0
diagonal:  Solving for T, Initial residual = 0, Final residual = 0, No Iterations 0
diagonal:  Solving for T, Initial residual = 0, Final residual = 0, No Iterations 0
 T goes from min(T) [0 0 0 0 0 0 0] -2.20773e+60 to max(T) [0 0 0 0 0 0 0] 2.14331e+60

ExecutionTime = 67.12 s  ClockTime = 1046 s

Time = 1.18
Courant Number mean: 0.62357 max: 1.75869
diagonal:  Solving for T, Initial residual = 0, Final residual = 0, No Iterations 0
diagonal:  Solving for T, Initial residual = 0, Final residual = 0, No Iterations 0
diagonal:  Solving for T, Initial residual = 0, Final residual = 0, No Iterations 0
diagonal:  Solving for T, Initial residual = 0, Final residual = 0, No Iterations 0
 T goes from min(T) [0 0 0 0 0 0 0] -3.4882e+60 to max(T) [0 0 0 0 0 0 0] 3.38518e+60

ExecutionTime = 67.61 s  ClockTime = 1052 s

Time = 1.19
Courant Number mean: 0.622085 max: 1.74647
diagonal:  Solving for T, Initial residual = 0, Final residual = 0, No Iterations 0
diagonal:  Solving for T, Initial residual = 0, Final residual = 0, No Iterations 0
diagonal:  Solving for T, Initial residual = 0, Final residual = 0, No Iterations 0
diagonal:  Solving for T, Initial residual = 0, Final residual = 0, No Iterations 0
 T goes from min(T) [0 0 0 0 0 0 0] -6.73134e+60 to max(T) [0 0 0 0 0 0 0] 6.91949e+60

ExecutionTime = 68.12 s  ClockTime = 1059 s

Time = 1.2
Courant Number mean: 0.62069 max: 1.73398
diagonal:  Solving for T, Initial residual = 0, Final residual = 0, No Iterations 0
diagonal:  Solving for T, Initial residual = 0, Final residual = 0, No Iterations 0
diagonal:  Solving for T, Initial residual = 0, Final residual = 0, No Iterations 0
diagonal:  Solving for T, Initial residual = 0, Final residual = 0, No Iterations 0
 T goes from min(T) [0 0 0 0 0 0 0] -1.21552e+61 to max(T) [0 0 0 0 0 0 0] 1.14603e+61

ExecutionTime = 68.61 s  ClockTime = 1065 s

Time = 1.21
Courant Number mean: 0.619399 max: 1.72122
diagonal:  Solving for T, Initial residual = 0, Final residual = 0, No Iterations 0
diagonal:  Solving for T, Initial residual = 0, Final residual = 0, No Iterations 0
diagonal:  Solving for T, Initial residual = 0, Final residual = 0, No Iterations 0
diagonal:  Solving for T, Initial residual = 0, Final residual = 0, No Iterations 0
 T goes from min(T) [0 0 0 0 0 0 0] -1.7383e+61 to max(T) [0 0 0 0 0 0 0] 1.85708e+61

ExecutionTime = 69.14 s  ClockTime = 1072 s

Time = 1.22
Courant Number mean: 0.618207 max: 1.70822
diagonal:  Solving for T, Initial residual = 0, Final residual = 0, No Iterations 0
diagonal:  Solving for T, Initial residual = 0, Final residual = 0, No Iterations 0
diagonal:  Solving for T, Initial residual = 0, Final residual = 0, No Iterations 0
diagonal:  Solving for T, Initial residual = 0, Final residual = 0, No Iterations 0
 T goes from min(T) [0 0 0 0 0 0 0] -2.51834e+61 to max(T) [0 0 0 0 0 0 0] 2.29957e+61

ExecutionTime = 69.65 s  ClockTime = 1079 s

Time = 1.23
Courant Number mean: 0.617102 max: 1.69497
diagonal:  Solving for T, Initial residual = 0, Final residual = 0, No Iterations 0
diagonal:  Solving for T, Initial residual = 0, Final residual = 0, No Iterations 0
diagonal:  Solving for T, Initial residual = 0, Final residual = 0, No Iterations 0
diagonal:  Solving for T, Initial residual = 0, Final residual = 0, No Iterations 0
 T goes from min(T) [0 0 0 0 0 0 0] -4.18564e+61 to max(T) [0 0 0 0 0 0 0] 4.66615e+61

ExecutionTime = 70.17 s  ClockTime = 1085 s

Time = 1.24
Courant Number mean: 0.616108 max: 1.68174
diagonal:  Solving for T, Initial residual = 0, Final residual = 0, No Iterations 0
diagonal:  Solving for T, Initial residual = 0, Final residual = 0, No Iterations 0
diagonal:  Solving for T, Initial residual = 0, Final residual = 0, No Iterations 0
diagonal:  Solving for T, Initial residual = 0, Final residual = 0, No Iterations 0
 T goes from min(T) [0 0 0 0 0 0 0] -7.58179e+61 to max(T) [0 0 0 0 0 0 0] 6.59799e+61

ExecutionTime = 70.78 s  ClockTime = 1094 s

Time = 1.25
Courant Number mean: 0.615192 max: 1.66831
diagonal:  Solving for T, Initial residual = 0, Final residual = 0, No Iterations 0
diagonal:  Solving for T, Initial residual = 0, Final residual = 0, No Iterations 0
diagonal:  Solving for T, Initial residual = 0, Final residual = 0, No Iterations 0
diagonal:  Solving for T, Initial residual = 0, Final residual = 0, No Iterations 0
 T goes from min(T) [0 0 0 0 0 0 0] -9.59851e+61 to max(T) [0 0 0 0 0 0 0] 1.06514e+62

ExecutionTime = 71.31 s  ClockTime = 1100 s

Time = 1.26
Courant Number mean: 0.61439 max: 1.67059
diagonal:  Solving for T, Initial residual = 0, Final residual = 0, No Iterations 0
diagonal:  Solving for T, Initial residual = 0, Final residual = 0, No Iterations 0
diagonal:  Solving for T, Initial residual = 0, Final residual = 0, No Iterations 0
diagonal:  Solving for T, Initial residual = 0, Final residual = 0, No Iterations 0
 T goes from min(T) [0 0 0 0 0 0 0] -1.28901e+62 to max(T) [0 0 0 0 0 0 0] 1.20261e+62

ExecutionTime = 71.84 s  ClockTime = 1107 s

Time = 1.27
Courant Number mean: 0.613672 max: 1.67248
diagonal:  Solving for T, Initial residual = 0, Final residual = 0, No Iterations 0
diagonal:  Solving for T, Initial residual = 0, Final residual = 0, No Iterations 0
diagonal:  Solving for T, Initial residual = 0, Final residual = 0, No Iterations 0
diagonal:  Solving for T, Initial residual = 0, Final residual = 0, No Iterations 0
 T goes from min(T) [0 0 0 0 0 0 0] -1.92898e+62 to max(T) [0 0 0 0 0 0 0] 2.09185e+62

ExecutionTime = 72.36 s  ClockTime = 1114 s

Time = 1.28
Courant Number mean: 0.613053 max: 1.6742
diagonal:  Solving for T, Initial residual = 0, Final residual = 0, No Iterations 0
diagonal:  Solving for T, Initial residual = 0, Final residual = 0, No Iterations 0
diagonal:  Solving for T, Initial residual = 0, Final residual = 0, No Iterations 0
diagonal:  Solving for T, Initial residual = 0, Final residual = 0, No Iterations 0
 T goes from min(T) [0 0 0 0 0 0 0] -3.15748e+62 to max(T) [0 0 0 0 0 0 0] 2.99573e+62

ExecutionTime = 72.92 s  ClockTime = 1121 s

Time = 1.29
Courant Number mean: 0.612536 max: 1.6755
diagonal:  Solving for T, Initial residual = 0, Final residual = 0, No Iterations 0
diagonal:  Solving for T, Initial residual = 0, Final residual = 0, No Iterations 0
diagonal:  Solving for T, Initial residual = 0, Final residual = 0, No Iterations 0
diagonal:  Solving for T, Initial residual = 0, Final residual = 0, No Iterations 0
 T goes from min(T) [0 0 0 0 0 0 0] -4.07847e+62 to max(T) [0 0 0 0 0 0 0] 4.07679e+62

ExecutionTime = 73.44 s  ClockTime = 1128 s

Time = 1.3
Courant Number mean: 0.612107 max: 1.67639
diagonal:  Solving for T, Initial residual = 0, Final residual = 0, No Iterations 0
diagonal:  Solving for T, Initial residual = 0, Final residual = 0, No Iterations 0
diagonal:  Solving for T, Initial residual = 0, Final residual = 0, No Iterations 0
diagonal:  Solving for T, Initial residual = 0, Final residual = 0, No Iterations 0
 T goes from min(T) [0 0 0 0 0 0 0] -4.5738e+62 to max(T) [0 0 0 0 0 0 0] 4.72579e+62

ExecutionTime = 73.94 s  ClockTime = 1135 s

Time = 1.31
Courant Number mean: 0.611784 max: 1.67686
diagonal:  Solving for T, Initial residual = 0, Final residual = 0, No Iterations 0
diagonal:  Solving for T, Initial residual = 0, Final residual = 0, No Iterations 0
diagonal:  Solving for T, Initial residual = 0, Final residual = 0, No Iterations 0
diagonal:  Solving for T, Initial residual = 0, Final residual = 0, No Iterations 0
 T goes from min(T) [0 0 0 0 0 0 0] -6.40278e+62 to max(T) [0 0 0 0 0 0 0] 6.32794e+62

ExecutionTime = 74.45 s  ClockTime = 1141 s

Time = 1.32
Courant Number mean: 0.611545 max: 1.67693
diagonal:  Solving for T, Initial residual = 0, Final residual = 0, No Iterations 0
diagonal:  Solving for T, Initial residual = 0, Final residual = 0, No Iterations 0
diagonal:  Solving for T, Initial residual = 0, Final residual = 0, No Iterations 0
diagonal:  Solving for T, Initial residual = 0, Final residual = 0, No Iterations 0
 T goes from min(T) [0 0 0 0 0 0 0] -8.91642e+62 to max(T) [0 0 0 0 0 0 0] 9.23692e+62

ExecutionTime = 74.97 s  ClockTime = 1148 s

Time = 1.33
Courant Number mean: 0.611402 max: 1.67658
diagonal:  Solving for T, Initial residual = 0, Final residual = 0, No Iterations 0
diagonal:  Solving for T, Initial residual = 0, Final residual = 0, No Iterations 0
diagonal:  Solving for T, Initial residual = 0, Final residual = 0, No Iterations 0
diagonal:  Solving for T, Initial residual = 0, Final residual = 0, No Iterations 0
 T goes from min(T) [0 0 0 0 0 0 0] -1.1593e+63 to max(T) [0 0 0 0 0 0 0] 1.05699e+63

ExecutionTime = 75.47 s  ClockTime = 1155 s

Time = 1.34
Courant Number mean: 0.611348 max: 1.67583
diagonal:  Solving for T, Initial residual = 0, Final residual = 0, No Iterations 0
diagonal:  Solving for T, Initial residual = 0, Final residual = 0, No Iterations 0
diagonal:  Solving for T, Initial residual = 0, Final residual = 0, No Iterations 0
diagonal:  Solving for T, Initial residual = 0, Final residual = 0, No Iterations 0
 T goes from min(T) [0 0 0 0 0 0 0] -1.09999e+63 to max(T) [0 0 0 0 0 0 0] 1.23269e+63

ExecutionTime = 75.98 s  ClockTime = 1161 s

Time = 1.35
Courant Number mean: 0.611382 max: 1.67467
diagonal:  Solving for T, Initial residual = 0, Final residual = 0, No Iterations 0
diagonal:  Solving for T, Initial residual = 0, Final residual = 0, No Iterations 0
diagonal:  Solving for T, Initial residual = 0, Final residual = 0, No Iterations 0
diagonal:  Solving for T, Initial residual = 0, Final residual = 0, No Iterations 0
 T goes from min(T) [0 0 0 0 0 0 0] -1.45551e+63 to max(T) [0 0 0 0 0 0 0] 1.32891e+63

ExecutionTime = 76.47 s  ClockTime = 1168 s

Time = 1.36
Courant Number mean: 0.611504 max: 1.67327
diagonal:  Solving for T, Initial residual = 0, Final residual = 0, No Iterations 0
diagonal:  Solving for T, Initial residual = 0, Final residual = 0, No Iterations 0
diagonal:  Solving for T, Initial residual = 0, Final residual = 0, No Iterations 0
diagonal:  Solving for T, Initial residual = 0, Final residual = 0, No Iterations 0
 T goes from min(T) [0 0 0 0 0 0 0] -1.75079e+63 to max(T) [0 0 0 0 0 0 0] 1.95885e+63

ExecutionTime = 76.97 s  ClockTime = 1173 s

Time = 1.37
Courant Number mean: 0.611711 max: 1.67154
diagonal:  Solving for T, Initial residual = 0, Final residual = 0, No Iterations 0
diagonal:  Solving for T, Initial residual = 0, Final residual = 0, No Iterations 0
diagonal:  Solving for T, Initial residual = 0, Final residual = 0, No Iterations 0
diagonal:  Solving for T, Initial residual = 0, Final residual = 0, No Iterations 0
 T goes from min(T) [0 0 0 0 0 0 0] -2.26305e+63 to max(T) [0 0 0 0 0 0 0] 2.00783e+63

ExecutionTime = 77.46 s  ClockTime = 1179 s

Time = 1.38
Courant Number mean: 0.611999 max: 1.6694
diagonal:  Solving for T, Initial residual = 0, Final residual = 0, No Iterations 0
diagonal:  Solving for T, Initial residual = 0, Final residual = 0, No Iterations 0
diagonal:  Solving for T, Initial residual = 0, Final residual = 0, No Iterations 0
diagonal:  Solving for T, Initial residual = 0, Final residual = 0, No Iterations 0
 T goes from min(T) [0 0 0 0 0 0 0] -2.07966e+63 to max(T) [0 0 0 0 0 0 0] 2.18789e+63

ExecutionTime = 77.97 s  ClockTime = 1185 s

Time = 1.39
Courant Number mean: 0.61237 max: 1.66687
diagonal:  Solving for T, Initial residual = 0, Final residual = 0, No Iterations 0
diagonal:  Solving for T, Initial residual = 0, Final residual = 0, No Iterations 0
diagonal:  Solving for T, Initial residual = 0, Final residual = 0, No Iterations 0
diagonal:  Solving for T, Initial residual = 0, Final residual = 0, No Iterations 0
 T goes from min(T) [0 0 0 0 0 0 0] -2.35947e+63 to max(T) [0 0 0 0 0 0 0] 2.13547e+63

ExecutionTime = 78.47 s  ClockTime = 1191 s

Time = 1.4
Courant Number mean: 0.61282 max: 1.66395
diagonal:  Solving for T, Initial residual = 0, Final residual = 0, No Iterations 0
diagonal:  Solving for T, Initial residual = 0, Final residual = 0, No Iterations 0
diagonal:  Solving for T, Initial residual = 0, Final residual = 0, No Iterations 0
diagonal:  Solving for T, Initial residual = 0, Final residual = 0, No Iterations 0
 T goes from min(T) [0 0 0 0 0 0 0] -2.73788e+63 to max(T) [0 0 0 0 0 0 0] 2.96307e+63

ExecutionTime = 78.98 s  ClockTime = 1198 s

Time = 1.41
Courant Number mean: 0.613347 max: 1.66063
diagonal:  Solving for T, Initial residual = 0, Final residual = 0, No Iterations 0
diagonal:  Solving for T, Initial residual = 0, Final residual = 0, No Iterations 0
diagonal:  Solving for T, Initial residual = 0, Final residual = 0, No Iterations 0
diagonal:  Solving for T, Initial residual = 0, Final residual = 0, No Iterations 0
 T goes from min(T) [0 0 0 0 0 0 0] -3.12496e+63 to max(T) [0 0 0 0 0 0 0] 3.05092e+63

ExecutionTime = 79.59 s  ClockTime = 1205 s

Time = 1.42
Courant Number mean: 0.613954 max: 1.65693
diagonal:  Solving for T, Initial residual = 0, Final residual = 0, No Iterations 0
diagonal:  Solving for T, Initial residual = 0, Final residual = 0, No Iterations 0
diagonal:  Solving for T, Initial residual = 0, Final residual = 0, No Iterations 0
diagonal:  Solving for T, Initial residual = 0, Final residual = 0, No Iterations 0
 T goes from min(T) [0 0 0 0 0 0 0] -6.06123e+63 to max(T) [0 0 0 0 0 0 0] 6.6124e+63

ExecutionTime = 80.1 s  ClockTime = 1211 s

Time = 1.43
Courant Number mean: 0.61462 max: 1.65285
diagonal:  Solving for T, Initial residual = 0, Final residual = 0, No Iterations 0
diagonal:  Solving for T, Initial residual = 0, Final residual = 0, No Iterations 0
diagonal:  Solving for T, Initial residual = 0, Final residual = 0, No Iterations 0
diagonal:  Solving for T, Initial residual = 0, Final residual = 0, No Iterations 0
 T goes from min(T) [0 0 0 0 0 0 0] -1.39043e+64 to max(T) [0 0 0 0 0 0 0] 1.29012e+64

ExecutionTime = 80.61 s  ClockTime = 1217 s

Time = 1.44
Courant Number mean: 0.615352 max: 1.6484
diagonal:  Solving for T, Initial residual = 0, Final residual = 0, No Iterations 0
diagonal:  Solving for T, Initial residual = 0, Final residual = 0, No Iterations 0
diagonal:  Solving for T, Initial residual = 0, Final residual = 0, No Iterations 0
diagonal:  Solving for T, Initial residual = 0, Final residual = 0, No Iterations 0
 T goes from min(T) [0 0 0 0 0 0 0] -2.86732e+64 to max(T) [0 0 0 0 0 0 0] 2.71467e+64

ExecutionTime = 81.09 s  ClockTime = 1223 s

Time = 1.45
Courant Number mean: 0.616137 max: 1.64377
diagonal:  Solving for T, Initial residual = 0, Final residual = 0, No Iterations 0
diagonal:  Solving for T, Initial residual = 0, Final residual = 0, No Iterations 0
diagonal:  Solving for T, Initial residual = 0, Final residual = 0, No Iterations 0
diagonal:  Solving for T, Initial residual = 0, Final residual = 0, No Iterations 0
 T goes from min(T) [0 0 0 0 0 0 0] -6.15318e+64 to max(T) [0 0 0 0 0 0 0] 6.31119e+64

ExecutionTime = 81.59 s  ClockTime = 1229 s

Time = 1.46
Courant Number mean: 0.616976 max: 1.63879
diagonal:  Solving for T, Initial residual = 0, Final residual = 0, No Iterations 0
diagonal:  Solving for T, Initial residual = 0, Final residual = 0, No Iterations 0
diagonal:  Solving for T, Initial residual = 0, Final residual = 0, No Iterations 0
diagonal:  Solving for T, Initial residual = 0, Final residual = 0, No Iterations 0
 T goes from min(T) [0 0 0 0 0 0 0] -1.29652e+65 to max(T) [0 0 0 0 0 0 0] 1.28884e+65

ExecutionTime = 82.1 s  ClockTime = 1235 s

Time = 1.47
Courant Number mean: 0.617873 max: 1.63344
diagonal:  Solving for T, Initial residual = 0, Final residual = 0, No Iterations 0
diagonal:  Solving for T, Initial residual = 0, Final residual = 0, No Iterations 0
diagonal:  Solving for T, Initial residual = 0, Final residual = 0, No Iterations 0
diagonal:  Solving for T, Initial residual = 0, Final residual = 0, No Iterations 0
 T goes from min(T) [0 0 0 0 0 0 0] -2.49929e+65 to max(T) [0 0 0 0 0 0 0] 2.55825e+65

ExecutionTime = 82.61 s  ClockTime = 1241 s

Time = 1.48
Courant Number mean: 0.618813 max: 1.62774
diagonal:  Solving for T, Initial residual = 0, Final residual = 0, No Iterations 0
diagonal:  Solving for T, Initial residual = 0, Final residual = 0, No Iterations 0
diagonal:  Solving for T, Initial residual = 0, Final residual = 0, No Iterations 0
diagonal:  Solving for T, Initial residual = 0, Final residual = 0, No Iterations 0
 T goes from min(T) [0 0 0 0 0 0 0] -5.63591e+65 to max(T) [0 0 0 0 0 0 0] 5.47671e+65

ExecutionTime = 83.12 s  ClockTime = 1247 s

Time = 1.49
Courant Number mean: 0.619808 max: 1.62169
diagonal:  Solving for T, Initial residual = 0, Final residual = 0, No Iterations 0
diagonal:  Solving for T, Initial residual = 0, Final residual = 0, No Iterations 0
diagonal:  Solving for T, Initial residual = 0, Final residual = 0, No Iterations 0
diagonal:  Solving for T, Initial residual = 0, Final residual = 0, No Iterations 0
 T goes from min(T) [0 0 0 0 0 0 0] -1.13296e+66 to max(T) [0 0 0 0 0 0 0] 1.15947e+66

ExecutionTime = 83.63 s  ClockTime = 1253 s

Time = 1.5
Courant Number mean: 0.620846 max: 1.6153
diagonal:  Solving for T, Initial residual = 0, Final residual = 0, No Iterations 0
diagonal:  Solving for T, Initial residual = 0, Final residual = 0, No Iterations 0
diagonal:  Solving for T, Initial residual = 0, Final residual = 0, No Iterations 0
diagonal:  Solving for T, Initial residual = 0, Final residual = 0, No Iterations 0
 T goes from min(T) [0 0 0 0 0 0 0] -2.30071e+66 to max(T) [0 0 0 0 0 0 0] 2.1419e+66

ExecutionTime = 84.14 s  ClockTime = 1260 s

Time = 1.51
Courant Number mean: 0.621926 max: 1.60857
diagonal:  Solving for T, Initial residual = 0, Final residual = 0, No Iterations 0
diagonal:  Solving for T, Initial residual = 0, Final residual = 0, No Iterations 0
diagonal:  Solving for T, Initial residual = 0, Final residual = 0, No Iterations 0
[...]

Time = 5.63
Courant Number mean: 0.791218 max: 2.0577
diagonal:  Solving for T, Initial residual = 0, Final residual = 0, No Iterations 0
diagonal:  Solving for T, Initial residual = 0, Final residual = 0, No Iterations 0
diagonal:  Solving for T, Initial residual = 0, Final residual = 0, No Iterations 0
diagonal:  Solving for T, Initial residual = 0, Final residual = 0, No Iterations 0
 T goes from min(T) [0 0 0 0 0 0 0] -3.45866e+182 to max(T) [0 0 0 0 0 0 0] 3.48753e+182

ExecutionTime = 294.69 s  ClockTime = 2794 s

Time = 5.64
Courant Number mean: 0.792925 max: 2.05244
diagonal:  Solving for T, Initial residual = 0, Final residual = 0, No Iterations 0
diagonal:  Solving for T, Initial residual = 0, Final residual = 0, No Iterations 0
diagonal:  Solving for T, Initial residual = 0, Final residual = 0, No Iterations 0
diagonal:  Solving for T, Initial residual = 0, Final residual = 0, No Iterations 0
 T goes from min(T) [0 0 0 0 0 0 0] -1.47308e+183 to max(T) [0 0 0 0 0 0 0] 1.46148e+183

ExecutionTime = 295.19 s  ClockTime = 2797 s

Time = 5.65
Courant Number mean: 0.794628 max: 2.04699
diagonal:  Solving for T, Initial residual = 0, Final residual = 0, No Iterations 0
diagonal:  Solving for T, Initial residual = 0, Final residual = 0, No Iterations 0
diagonal:  Solving for T, Initial residual = 0, Final residual = 0, No Iterations 0
diagonal:  Solving for T, Initial residual = 0, Final residual = 0, No Iterations 0
 T goes from min(T) [0 0 0 0 0 0 0] -5.38347e+183 to max(T) [0 0 0 0 0 0 0] 5.3781e+183

ExecutionTime = 295.7 s  ClockTime = 2800 s

Time = 5.66
Courant Number mean: 0.796302 max: 2.04114
diagonal:  Solving for T, Initial residual = 0, Final residual = 0, No Iterations 0
diagonal:  Solving for T, Initial residual = 0, Final residual = 0, No Iterations 0
diagonal:  Solving for T, Initial residual = 0, Final residual = 0, No Iterations 0
diagonal:  Solving for T, Initial residual = 0, Final residual = 0, No Iterations 0
 T goes from min(T) [0 0 0 0 0 0 0] -2.48885e+184 to max(T) [0 0 0 0 0 0 0] 2.4456e+184

ExecutionTime = 296.21 s  ClockTime = 2803 s

Time = 5.67
Courant Number mean: 0.797973 max: 2.03588
diagonal:  Solving for T, Initial residual = 0, Final residual = 0, No Iterations 0
diagonal:  Solving for T, Initial residual = 0, Final residual = 0, No Iterations 0
diagonal:  Solving for T, Initial residual = 0, Final residual = 0, No Iterations 0
diagonal:  Solving for T, Initial residual = 0, Final residual = 0, No Iterations 0
 T goes from min(T) [0 0 0 0 0 0 0] -1.06704e+185 to max(T) [0 0 0 0 0 0 0] 1.08497e+185

ExecutionTime = 296.71 s  ClockTime = 2806 s

Time = 5.68
Courant Number mean: 0.799615 max: 2.03013
diagonal:  Solving for T, Initial residual = 0, Final residual = 0, No Iterations 0
diagonal:  Solving for T, Initial residual = 0, Final residual = 0, No Iterations 0
diagonal:  Solving for T, Initial residual = 0, Final residual = 0, No Iterations 0
diagonal:  Solving for T, Initial residual = 0, Final residual = 0, No Iterations 0
 T goes from min(T) [0 0 0 0 0 0 0] -4.32049e+185 to max(T) [0 0 0 0 0 0 0] 4.23703e+185

ExecutionTime = 297.2 s  ClockTime = 2809 s

Time = 5.69
Courant Number mean: 0.801249 max: 2.02387
diagonal:  Solving for T, Initial residual = 0, Final residual = 0, No Iterations 0
diagonal:  Solving for T, Initial residual = 0, Final residual = 0, No Iterations 0
diagonal:  Solving for T, Initial residual = 0, Final residual = 0, No Iterations 0
diagonal:  Solving for T, Initial residual = 0, Final residual = 0, No Iterations 0
 T goes from min(T) [0 0 0 0 0 0 0] -1.56744e+186 to max(T) [0 0 0 0 0 0 0] 1.50843e+186

ExecutionTime = 297.71 s  ClockTime = 2812 s

Time = 5.7
Courant Number mean: 0.802857 max: 2.01825
diagonal:  Solving for T, Initial residual = 0, Final residual = 0, No Iterations 0
diagonal:  Solving for T, Initial residual = 0, Final residual = 0, No Iterations 0
diagonal:  Solving for T, Initial residual = 0, Final residual = 0, No Iterations 0
diagonal:  Solving for T, Initial residual = 0, Final residual = 0, No Iterations 0
 T goes from min(T) [0 0 0 0 0 0 0] -6.71041e+186 to max(T) [0 0 0 0 0 0 0] 7.00269e+186

ExecutionTime = 298.2 s  ClockTime = 2815 s

Time = 5.71
Courant Number mean: 0.804459 max: 2.0122
diagonal:  Solving for T, Initial residual = 0, Final residual = 0, No Iterations 0
diagonal:  Solving for T, Initial residual = 0, Final residual = 0, No Iterations 0
diagonal:  Solving for T, Initial residual = 0, Final residual = 0, No Iterations 0
diagonal:  Solving for T, Initial residual = 0, Final residual = 0, No Iterations 0
 T goes from min(T) [0 0 0 0 0 0 0] -2.88179e+187 to max(T) [0 0 0 0 0 0 0] 2.76634e+187

ExecutionTime = 298.7 s  ClockTime = 2818 s

Time = 5.72
Courant Number mean: 0.806032 max: 2.00587
diagonal:  Solving for T, Initial residual = 0, Final residual = 0, No Iterations 0
diagonal:  Solving for T, Initial residual = 0, Final residual = 0, No Iterations 0
diagonal:  Solving for T, Initial residual = 0, Final residual = 0, No Iterations 0
diagonal:  Solving for T, Initial residual = 0, Final residual = 0, No Iterations 0
 T goes from min(T) [0 0 0 0 0 0 0] -1.03275e+188 to max(T) [0 0 0 0 0 0 0] 1.07657e+188

ExecutionTime = 299.19 s  ClockTime = 2821 s

Time = 5.73
Courant Number mean: 0.807595 max: 1.99963
diagonal:  Solving for T, Initial residual = 0, Final residual = 0, No Iterations 0
diagonal:  Solving for T, Initial residual = 0, Final residual = 0, No Iterations 0
diagonal:  Solving for T, Initial residual = 0, Final residual = 0, No Iterations 0
diagonal:  Solving for T, Initial residual = 0, Final residual = 0, No Iterations 0
 T goes from min(T) [0 0 0 0 0 0 0] -3.90051e+188 to max(T) [0 0 0 0 0 0 0] 3.93795e+188

ExecutionTime = 299.68 s  ClockTime = 2824 s

Time = 5.74
Courant Number mean: 0.809132 max: 1.99324
diagonal:  Solving for T, Initial residual = 0, Final residual = 0, No Iterations 0
diagonal:  Solving for T, Initial residual = 0, Final residual = 0, No Iterations 0
diagonal:  Solving for T, Initial residual = 0, Final residual = 0, No Iterations 0
diagonal:  Solving for T, Initial residual = 0, Final residual = 0, No Iterations 0
 T goes from min(T) [0 0 0 0 0 0 0] -1.64992e+189 to max(T) [0 0 0 0 0 0 0] 1.62892e+189

ExecutionTime = 300.19 s  ClockTime = 2827 s

Time = 5.75
Courant Number mean: 0.810657 max: 1.98713
diagonal:  Solving for T, Initial residual = 0, Final residual = 0, No Iterations 0
diagonal:  Solving for T, Initial residual = 0, Final residual = 0, No Iterations 0
diagonal:  Solving for T, Initial residual = 0, Final residual = 0, No Iterations 0
diagonal:  Solving for T, Initial residual = 0, Final residual = 0, No Iterations 0
 T goes from min(T) [0 0 0 0 0 0 0] -6.32248e+189 to max(T) [0 0 0 0 0 0 0] 6.3931e+189

ExecutionTime = 300.7 s  ClockTime = 2830 s

Time = 5.76
Courant Number mean: 0.812148 max: 1.9806
diagonal:  Solving for T, Initial residual = 0, Final residual = 0, No Iterations 0
diagonal:  Solving for T, Initial residual = 0, Final residual = 0, No Iterations 0
diagonal:  Solving for T, Initial residual = 0, Final residual = 0, No Iterations 0
diagonal:  Solving for T, Initial residual = 0, Final residual = 0, No Iterations 0
 T goes from min(T) [0 0 0 0 0 0 0] -2.23026e+190 to max(T) [0 0 0 0 0 0 0] 2.20776e+190

ExecutionTime = 301.2 s  ClockTime = 2833 s

Time = 5.77
Courant Number mean: 0.813635 max: 1.97372
diagonal:  Solving for T, Initial residual = 0, Final residual = 0, No Iterations 0
diagonal:  Solving for T, Initial residual = 0, Final residual = 0, No Iterations 0
diagonal:  Solving for T, Initial residual = 0, Final residual = 0, No Iterations 0
diagonal:  Solving for T, Initial residual = 0, Final residual = 0, No Iterations 0
 T goes from min(T) [0 0 0 0 0 0 0] -8.19296e+190 to max(T) [0 0 0 0 0 0 0] 8.35371e+190

ExecutionTime = 301.71 s  ClockTime = 2836 s

Time = 5.78
Courant Number mean: 0.81509 max: 1.9674
diagonal:  Solving for T, Initial residual = 0, Final residual = 0, No Iterations 0
diagonal:  Solving for T, Initial residual = 0, Final residual = 0, No Iterations 0
diagonal:  Solving for T, Initial residual = 0, Final residual = 0, No Iterations 0
diagonal:  Solving for T, Initial residual = 0, Final residual = 0, No Iterations 0
 T goes from min(T) [0 0 0 0 0 0 0] -3.26282e+191 to max(T) [0 0 0 0 0 0 0] 3.20788e+191

ExecutionTime = 302.21 s  ClockTime = 2839 s

Time = 5.79
Courant Number mean: 0.816533 max: 1.9606
diagonal:  Solving for T, Initial residual = 0, Final residual = 0, No Iterations 0
diagonal:  Solving for T, Initial residual = 0, Final residual = 0, No Iterations 0
diagonal:  Solving for T, Initial residual = 0, Final residual = 0, No Iterations 0
diagonal:  Solving for T, Initial residual = 0, Final residual = 0, No Iterations 0
 T goes from min(T) [0 0 0 0 0 0 0] -1.168e+192 to max(T) [0 0 0 0 0 0 0] 1.18995e+192

ExecutionTime = 302.7 s  ClockTime = 2842 s

Time = 5.8
Courant Number mean: 0.81794 max: 1.95333
diagonal:  Solving for T, Initial residual = 0, Final residual = 0, No Iterations 0
diagonal:  Solving for T, Initial residual = 0, Final residual = 0, No Iterations 0
diagonal:  Solving for T, Initial residual = 0, Final residual = 0, No Iterations 0
diagonal:  Solving for T, Initial residual = 0, Final residual = 0, No Iterations 0
 T goes from min(T) [0 0 0 0 0 0 0] -3.87558e+192 to max(T) [0 0 0 0 0 0 0] 3.79509e+192

ExecutionTime = 303.21 s  ClockTime = 2845 s

Time = 5.81
Courant Number mean: 0.819336 max: 1.94673
diagonal:  Solving for T, Initial residual = 0, Final residual = 0, No Iterations 0
diagonal:  Solving for T, Initial residual = 0, Final residual = 0, No Iterations 0
diagonal:  Solving for T, Initial residual = 0, Final residual = 0, No Iterations 0
diagonal:  Solving for T, Initial residual = 0, Final residual = 0, No Iterations 0
 T goes from min(T) [0 0 0 0 0 0 0] -1.46063e+193 to max(T) [0 0 0 0 0 0 0] 1.40968e+193

ExecutionTime = 303.72 s  ClockTime = 2848 s

Time = 5.82
Courant Number mean: 0.820703 max: 1.93967
diagonal:  Solving for T, Initial residual = 0, Final residual = 0, No Iterations 0
diagonal:  Solving for T, Initial residual = 0, Final residual = 0, No Iterations 0
diagonal:  Solving for T, Initial residual = 0, Final residual = 0, No Iterations 0
diagonal:  Solving for T, Initial residual = 0, Final residual = 0, No Iterations 0
 T goes from min(T) [0 0 0 0 0 0 0] -5.13038e+193 to max(T) [0 0 0 0 0 0 0] 5.32011e+193

ExecutionTime = 304.21 s  ClockTime = 2851 s

Time = 5.83
Courant Number mean: 0.822051 max: 1.93253
diagonal:  Solving for T, Initial residual = 0, Final residual = 0, No Iterations 0
diagonal:  Solving for T, Initial residual = 0, Final residual = 0, No Iterations 0
diagonal:  Solving for T, Initial residual = 0, Final residual = 0, No Iterations 0
diagonal:  Solving for T, Initial residual = 0, Final residual = 0, No Iterations 0
 T goes from min(T) [0 0 0 0 0 0 0] -1.8206e+194 to max(T) [0 0 0 0 0 0 0] 1.7623e+194

ExecutionTime = 304.71 s  ClockTime = 2854 s

Time = 5.84
Courant Number mean: 0.823366 max: 1.92529
diagonal:  Solving for T, Initial residual = 0, Final residual = 0, No Iterations 0
diagonal:  Solving for T, Initial residual = 0, Final residual = 0, No Iterations 0
diagonal:  Solving for T, Initial residual = 0, Final residual = 0, No Iterations 0
diagonal:  Solving for T, Initial residual = 0, Final residual = 0, No Iterations 0
 T goes from min(T) [0 0 0 0 0 0 0] -5.50321e+194 to max(T) [0 0 0 0 0 0 0] 5.51891e+194

ExecutionTime = 305.22 s  ClockTime = 2857 s

Time = 5.85
Courant Number mean: 0.824665 max: 1.91796
diagonal:  Solving for T, Initial residual = 0, Final residual = 0, No Iterations 0
diagonal:  Solving for T, Initial residual = 0, Final residual = 0, No Iterations 0
diagonal:  Solving for T, Initial residual = 0, Final residual = 0, No Iterations 0
diagonal:  Solving for T, Initial residual = 0, Final residual = 0, No Iterations 0
 T goes from min(T) [0 0 0 0 0 0 0] -2.0524e+195 to max(T) [0 0 0 0 0 0 0] 2.05703e+195

ExecutionTime = 305.71 s  ClockTime = 2860 s

Time = 5.86
Courant Number mean: 0.825929 max: 1.91093
diagonal:  Solving for T, Initial residual = 0, Final residual = 0, No Iterations 0
diagonal:  Solving for T, Initial residual = 0, Final residual = 0, No Iterations 0
diagonal:  Solving for T, Initial residual = 0, Final residual = 0, No Iterations 0
diagonal:  Solving for T, Initial residual = 0, Final residual = 0, No Iterations 0
 T goes from min(T) [0 0 0 0 0 0 0] -7.01163e+195 to max(T) [0 0 0 0 0 0 0] 6.99108e+195

ExecutionTime = 306.22 s  ClockTime = 2863 s

Time = 5.87
Courant Number mean: 0.827177 max: 1.90345
diagonal:  Solving for T, Initial residual = 0, Final residual = 0, No Iterations 0
diagonal:  Solving for T, Initial residual = 0, Final residual = 0, No Iterations 0
diagonal:  Solving for T, Initial residual = 0, Final residual = 0, No Iterations 0
diagonal:  Solving for T, Initial residual = 0, Final residual = 0, No Iterations 0
 T goes from min(T) [0 0 0 0 0 0 0] -2.24136e+196 to max(T) [0 0 0 0 0 0 0] 2.23675e+196

ExecutionTime = 306.72 s  ClockTime = 2866 s

Time = 5.88
Courant Number mean: 0.828386 max: 1.89576
diagonal:  Solving for T, Initial residual = 0, Final residual = 0, No Iterations 0
diagonal:  Solving for T, Initial residual = 0, Final residual = 0, No Iterations 0
diagonal:  Solving for T, Initial residual = 0, Final residual = 0, No Iterations 0
diagonal:  Solving for T, Initial residual = 0, Final residual = 0, No Iterations 0
 T goes from min(T) [0 0 0 0 0 0 0] -6.83547e+196 to max(T) [0 0 0 0 0 0 0] 6.63374e+196

ExecutionTime = 307.22 s  ClockTime = 2869 s

Time = 5.89
Courant Number mean: 0.829575 max: 1.88849
diagonal:  Solving for T, Initial residual = 0, Final residual = 0, No Iterations 0
diagonal:  Solving for T, Initial residual = 0, Final residual = 0, No Iterations 0
diagonal:  Solving for T, Initial residual = 0, Final residual = 0, No Iterations 0
diagonal:  Solving for T, Initial residual = 0, Final residual = 0, No Iterations 0
 T goes from min(T) [0 0 0 0 0 0 0] -2.30401e+197 to max(T) [0 0 0 0 0 0 0] 2.37864e+197

ExecutionTime = 307.72 s  ClockTime = 2872 s

Time = 5.9
Courant Number mean: 0.830728 max: 1.88078
diagonal:  Solving for T, Initial residual = 0, Final residual = 0, No Iterations 0
diagonal:  Solving for T, Initial residual = 0, Final residual = 0, No Iterations 0
diagonal:  Solving for T, Initial residual = 0, Final residual = 0, No Iterations 0
diagonal:  Solving for T, Initial residual = 0, Final residual = 0, No Iterations 0
 T goes from min(T) [0 0 0 0 0 0 0] -7.60507e+197 to max(T) [0 0 0 0 0 0 0] 7.36693e+197

ExecutionTime = 308.24 s  ClockTime = 2875 s

Time = 5.91
Courant Number mean: 0.83186 max: 1.87275
diagonal:  Solving for T, Initial residual = 0, Final residual = 0, No Iterations 0
diagonal:  Solving for T, Initial residual = 0, Final residual = 0, No Iterations 0
diagonal:  Solving for T, Initial residual = 0, Final residual = 0, No Iterations 0
diagonal:  Solving for T, Initial residual = 0, Final residual = 0, No Iterations 0
 T goes from min(T) [0 0 0 0 0 0 0] -2.1813e+198 to max(T) [0 0 0 0 0 0 0] 2.26448e+198

ExecutionTime = 308.74 s  ClockTime = 2878 s

Time = 5.92
Courant Number mean: 0.832948 max: 1.86527
diagonal:  Solving for T, Initial residual = 0, Final residual = 0, No Iterations 0
diagonal:  Solving for T, Initial residual = 0, Final residual = 0, No Iterations 0
diagonal:  Solving for T, Initial residual = 0, Final residual = 0, No Iterations 0
diagonal:  Solving for T, Initial residual = 0, Final residual = 0, No Iterations 0
 T goes from min(T) [0 0 0 0 0 0 0] -6.60705e+198 to max(T) [0 0 0 0 0 0 0] 6.71844e+198

ExecutionTime = 309.23 s  ClockTime = 2881 s

Time = 5.93
Courant Number mean: 0.834012 max: 1.85735
diagonal:  Solving for T, Initial residual = 0, Final residual = 0, No Iterations 0
diagonal:  Solving for T, Initial residual = 0, Final residual = 0, No Iterations 0
diagonal:  Solving for T, Initial residual = 0, Final residual = 0, No Iterations 0
diagonal:  Solving for T, Initial residual = 0, Final residual = 0, No Iterations 0
 T goes from min(T) [0 0 0 0 0 0 0] -2.1693e+199 to max(T) [0 0 0 0 0 0 0] 2.1389e+199

ExecutionTime = 309.74 s  ClockTime = 2884 s

Time = 5.94
Courant Number mean: 0.835039 max: 1.84947
diagonal:  Solving for T, Initial residual = 0, Final residual = 0, No Iterations 0
diagonal:  Solving for T, Initial residual = 0, Final residual = 0, No Iterations 0
diagonal:  Solving for T, Initial residual = 0, Final residual = 0, No Iterations 0
diagonal:  Solving for T, Initial residual = 0, Final residual = 0, No Iterations 0
 T goes from min(T) [0 0 0 0 0 0 0] -6.44413e+199 to max(T) [0 0 0 0 0 0 0] 6.5105e+199

ExecutionTime = 310.24 s  ClockTime = 2887 s

Time = 5.95
Courant Number mean: 0.836034 max: 1.84137
diagonal:  Solving for T, Initial residual = 0, Final residual = 0, No Iterations 0
diagonal:  Solving for T, Initial residual = 0, Final residual = 0, No Iterations 0
diagonal:  Solving for T, Initial residual = 0, Final residual = 0, No Iterations 0
diagonal:  Solving for T, Initial residual = 0, Final residual = 0, No Iterations 0
 T goes from min(T) [0 0 0 0 0 0 0] -1.79826e+200 to max(T) [0 0 0 0 0 0 0] 1.78676e+200

ExecutionTime = 310.74 s  ClockTime = 2890 s

Time = 5.96
Courant Number mean: 0.83699 max: 1.83338
diagonal:  Solving for T, Initial residual = 0, Final residual = 0, No Iterations 0
diagonal:  Solving for T, Initial residual = 0, Final residual = 0, No Iterations 0
diagonal:  Solving for T, Initial residual = 0, Final residual = 0, No Iterations 0
diagonal:  Solving for T, Initial residual = 0, Final residual = 0, No Iterations 0
 T goes from min(T) [0 0 0 0 0 0 0] -5.14791e+200 to max(T) [0 0 0 0 0 0 0] 5.26102e+200

ExecutionTime = 311.24 s  ClockTime = 2893 s

Time = 5.97
Courant Number mean: 0.837914 max: 1.82551
diagonal:  Solving for T, Initial residual = 0, Final residual = 0, No Iterations 0
diagonal:  Solving for T, Initial residual = 0, Final residual = 0, No Iterations 0
diagonal:  Solving for T, Initial residual = 0, Final residual = 0, No Iterations 0
diagonal:  Solving for T, Initial residual = 0, Final residual = 0, No Iterations 0
 T goes from min(T) [0 0 0 0 0 0 0] -1.57854e+201 to max(T) [0 0 0 0 0 0 0] 1.54081e+201

ExecutionTime = 311.74 s  ClockTime = 2896 s

Time = 5.98
Courant Number mean: 0.838792 max: 1.81722
diagonal:  Solving for T, Initial residual = 0, Final residual = 0, No Iterations 0
diagonal:  Solving for T, Initial residual = 0, Final residual = 0, No Iterations 0
diagonal:  Solving for T, Initial residual = 0, Final residual = 0, No Iterations 0
diagonal:  Solving for T, Initial residual = 0, Final residual = 0, No Iterations 0
 T goes from min(T) [0 0 0 0 0 0 0] -4.34472e+201 to max(T) [0 0 0 0 0 0 0] 4.47029e+201

ExecutionTime = 312.23 s  ClockTime = 2899 s

Time = 5.99
Courant Number mean: 0.839636 max: 1.80894
diagonal:  Solving for T, Initial residual = 0, Final residual = 0, No Iterations 0
diagonal:  Solving for T, Initial residual = 0, Final residual = 0, No Iterations 0
diagonal:  Solving for T, Initial residual = 0, Final residual = 0, No Iterations 0
diagonal:  Solving for T, Initial residual = 0, Final residual = 0, No Iterations 0
 T goes from min(T) [0 0 0 0 0 0 0] -1.14962e+202 to max(T) [0 0 0 0 0 0 0] 1.11215e+202

ExecutionTime = 312.73 s  ClockTime = 2902 s

Time = 6
Courant Number mean: 0.840435 max: 1.80088
diagonal:  Solving for T, Initial residual = 0, Final residual = 0, No Iterations 0
diagonal:  Solving for T, Initial residual = 0, Final residual = 0, No Iterations 0
diagonal:  Solving for T, Initial residual = 0, Final residual = 0, No Iterations 0
diagonal:  Solving for T, Initial residual = 0, Final residual = 0, No Iterations 0
 T goes from min(T) [0 0 0 0 0 0 0] -3.23761e+202 to max(T) [0 0 0 0 0 0 0] 3.1725e+202

ExecutionTime = 313.24 s  ClockTime = 2905 s

End

