/*---------------------------------------------------------------------------*\
| =========                 |                                                 |
| \\      /  F ield         | OpenFOAM: The Open Source CFD Toolbox           |
|  \\    /   O peration     | Version:  dev                                   |
|   \\  /    A nd           | Web:      www.OpenFOAM.org                      |
|    \\/     M anipulation  |                                                 |
\*---------------------------------------------------------------------------*/
Build  : dev-90f39e0d894d
Exec   : scalarDeformationWithGhosts implicit -case orthogonal/240x120/c1_implicit
Date   : May 23 2017
Time   : 20:31:13
Host   : "sws02hw.private.rdg.ac.uk"
PID    : 22904
Case   : orthogonal/240x120/c1_implicit
nProcs : 1
sigFpe : Enabling floating point exception trapping (FOAM_SIGFPE).
fileModificationChecking : Monitoring run-time modified files using timeStampMaster (fileModificationSkew 10)
allowSystemOperations : Allowing user-supplied system call operations

// * * * * * * * * * * * * * * * * * * * * * * * * * * * * * * * * * * * * * //
Create time

Create mesh for time = 0

Reading field T

Reading fields phi (compulsory), U and Uf (optional)

Calculating owner stencils
Calculating neighbour stencils

Calculating scalar transport

Courant Number mean: 0.374536 max: 0.735969
Time = 0.005
Courant Number mean: 0.374526 max: 0.735995
DILUPBiCG:  Solving for T, Initial residual = 0.00673935, Final residual = 9.15067e-10, No Iterations 3
DILUPBiCG:  Solving for T, Initial residual = 2.42561e-05, Final residual = 1.28807e-09, No Iterations 2
DILUPBiCG:  Solving for T, Initial residual = 3.48209e-08, Final residual = 2.86906e-10, No Iterations 1
DILUPBiCG:  Solving for T, Initial residual = 2.96829e-10, Final residual = 2.96829e-10, No Iterations 0
 T goes from min(T) [0 0 0 0 0 0 0] 8.59923e-21 to max(T) [0 0 0 0 0 0 0] 0.953917

ExecutionTime = 7.74 s  ClockTime = 129 s

Time = 0.01
Courant Number mean: 0.374494 max: 0.735965
DILUPBiCG:  Solving for T, Initial residual = 0.00673903, Final residual = 8.84721e-10, No Iterations 3
DILUPBiCG:  Solving for T, Initial residual = 2.42609e-05, Final residual = 1.25777e-09, No Iterations 2
DILUPBiCG:  Solving for T, Initial residual = 3.4962e-08, Final residual = 2.8711e-10, No Iterations 1
DILUPBiCG:  Solving for T, Initial residual = 2.98558e-10, Final residual = 2.98558e-10, No Iterations 0
 T goes from min(T) [0 0 0 0 0 0 0] 8.31623e-21 to max(T) [0 0 0 0 0 0 0] 0.953879

ExecutionTime = 8.26 s  ClockTime = 140 s

Time = 0.015
Courant Number mean: 0.374515 max: 0.735975
DILUPBiCG:  Solving for T, Initial residual = 0.00673888, Final residual = 8.56472e-10, No Iterations 3
DILUPBiCG:  Solving for T, Initial residual = 2.42752e-05, Final residual = 1.2277e-09, No Iterations 2
DILUPBiCG:  Solving for T, Initial residual = 3.50804e-08, Final residual = 2.86834e-10, No Iterations 1
DILUPBiCG:  Solving for T, Initial residual = 2.95439e-10, Final residual = 2.95439e-10, No Iterations 0
 T goes from min(T) [0 0 0 0 0 0 0] 8.54276e-21 to max(T) [0 0 0 0 0 0 0] 0.953282

ExecutionTime = 8.78 s  ClockTime = 153 s

Time = 0.02
Courant Number mean: 0.374521 max: 0.735938
DILUPBiCG:  Solving for T, Initial residual = 0.00674037, Final residual = 8.30306e-10, No Iterations 3
DILUPBiCG:  Solving for T, Initial residual = 2.42985e-05, Final residual = 1.19732e-09, No Iterations 2
DILUPBiCG:  Solving for T, Initial residual = 3.52498e-08, Final residual = 2.86957e-10, No Iterations 1
DILUPBiCG:  Solving for T, Initial residual = 2.92846e-10, Final residual = 2.92846e-10, No Iterations 0
 T goes from min(T) [0 0 0 0 0 0 0] 9.25149e-21 to max(T) [0 0 0 0 0 0 0] 0.953648

ExecutionTime = 9.32 s  ClockTime = 165 s

Time = 0.025
Courant Number mean: 0.374508 max: 0.735935
DILUPBiCG:  Solving for T, Initial residual = 0.00674129, Final residual = 8.06167e-10, No Iterations 3
DILUPBiCG:  Solving for T, Initial residual = 2.43259e-05, Final residual = 1.16616e-09, No Iterations 2
DILUPBiCG:  Solving for T, Initial residual = 3.54261e-08, Final residual = 2.87136e-10, No Iterations 1
DILUPBiCG:  Solving for T, Initial residual = 2.92404e-10, Final residual = 2.92404e-10, No Iterations 0
 T goes from min(T) [0 0 0 0 0 0 0] 8.90245e-21 to max(T) [0 0 0 0 0 0 0] 0.953898

ExecutionTime = 9.84 s  ClockTime = 175 s

Time = 0.03
Courant Number mean: 0.374471 max: 0.735894
DILUPBiCG:  Solving for T, Initial residual = 0.00674257, Final residual = 7.84385e-10, No Iterations 3
DILUPBiCG:  Solving for T, Initial residual = 2.43566e-05, Final residual = 1.13418e-09, No Iterations 2
DILUPBiCG:  Solving for T, Initial residual = 3.56606e-08, Final residual = 2.87818e-10, No Iterations 1
DILUPBiCG:  Solving for T, Initial residual = 2.95031e-10, Final residual = 2.95031e-10, No Iterations 0
 T goes from min(T) [0 0 0 0 0 0 0] 8.50576e-21 to max(T) [0 0 0 0 0 0 0] 0.953248

ExecutionTime = 10.34 s  ClockTime = 185 s

Time = 0.035
Courant Number mean: 0.374476 max: 0.735876
DILUPBiCG:  Solving for T, Initial residual = 0.00674465, Final residual = 7.64948e-10, No Iterations 3
DILUPBiCG:  Solving for T, Initial residual = 2.43956e-05, Final residual = 1.10231e-09, No Iterations 2
DILUPBiCG:  Solving for T, Initial residual = 3.58883e-08, Final residual = 2.88236e-10, No Iterations 1
DILUPBiCG:  Solving for T, Initial residual = 2.93254e-10, Final residual = 2.93254e-10, No Iterations 0
 T goes from min(T) [0 0 0 0 0 0 0] 8.59194e-21 to max(T) [0 0 0 0 0 0 0] 0.953926

ExecutionTime = 10.86 s  ClockTime = 195 s

Time = 0.04
Courant Number mean: 0.374478 max: 0.735828
DILUPBiCG:  Solving for T, Initial residual = 0.00674656, Final residual = 7.4729e-10, No Iterations 3
DILUPBiCG:  Solving for T, Initial residual = 2.44421e-05, Final residual = 1.0698e-09, No Iterations 2
DILUPBiCG:  Solving for T, Initial residual = 3.61337e-08, Final residual = 2.88799e-10, No Iterations 1
DILUPBiCG:  Solving for T, Initial residual = 2.90597e-10, Final residual = 2.90597e-10, No Iterations 0
 T goes from min(T) [0 0 0 0 0 0 0] 9.14707e-21 to max(T) [0 0 0 0 0 0 0] 0.953782

ExecutionTime = 11.38 s  ClockTime = 205 s

Time = 0.045
Courant Number mean: 0.37446 max: 0.735796
DILUPBiCG:  Solving for T, Initial residual = 0.00674828, Final residual = 7.31965e-10, No Iterations 3
DILUPBiCG:  Solving for T, Initial residual = 2.44911e-05, Final residual = 1.03648e-09, No Iterations 2
DILUPBiCG:  Solving for T, Initial residual = 3.64135e-08, Final residual = 2.89428e-10, No Iterations 1
DILUPBiCG:  Solving for T, Initial residual = 2.90249e-10, Final residual = 2.90249e-10, No Iterations 0
 T goes from min(T) [0 0 0 0 0 0 0] 9.0306e-21 to max(T) [0 0 0 0 0 0 0] 0.953249

ExecutionTime = 11.94 s  ClockTime = 215 s

Time = 0.05
Courant Number mean: 0.37442 max: 0.735743
DILUPBiCG:  Solving for T, Initial residual = 0.00675077, Final residual = 7.17727e-10, No Iterations 3
DILUPBiCG:  Solving for T, Initial residual = 2.45429e-05, Final residual = 1.00225e-09, No Iterations 2
DILUPBiCG:  Solving for T, Initial residual = 3.67413e-08, Final residual = 2.90474e-10, No Iterations 1
DILUPBiCG:  Solving for T, Initial residual = 2.9337e-10, Final residual = 2.9337e-10, No Iterations 0
 T goes from min(T) [0 0 0 0 0 0 0] 8.56823e-21 to max(T) [0 0 0 0 0 0 0] 0.953848

ExecutionTime = 12.43 s  ClockTime = 225 s

Time = 0.055
Courant Number mean: 0.374407 max: 0.735696
DILUPBiCG:  Solving for T, Initial residual = 0.00675269, Final residual = 7.05455e-10, No Iterations 3
DILUPBiCG:  Solving for T, Initial residual = 2.46012e-05, Final residual = 9.67653e-10, No Iterations 2
DILUPBiCG:  Solving for T, Initial residual = 3.70586e-08, Final residual = 2.9136e-10, No Iterations 1
DILUPBiCG:  Solving for T, Initial residual = 2.93353e-10, Final residual = 2.93353e-10, No Iterations 0
 T goes from min(T) [0 0 0 0 0 0 0] 8.56591e-21 to max(T) [0 0 0 0 0 0 0] 0.95405

ExecutionTime = 12.93 s  ClockTime = 234 s

Time = 0.06
Courant Number mean: 0.374406 max: 0.735638
DILUPBiCG:  Solving for T, Initial residual = 0.00675473, Final residual = 6.94946e-10, No Iterations 3
DILUPBiCG:  Solving for T, Initial residual = 2.4663e-05, Final residual = 9.32438e-10, No Iterations 2
DILUPBiCG:  Solving for T, Initial residual = 3.7393e-08, Final residual = 2.92109e-10, No Iterations 1
DILUPBiCG:  Solving for T, Initial residual = 2.90573e-10, Final residual = 2.90573e-10, No Iterations 0
 T goes from min(T) [0 0 0 0 0 0 0] 9.01571e-21 to max(T) [0 0 0 0 0 0 0] 0.953311

ExecutionTime = 13.43 s  ClockTime = 243 s

Time = 0.065
Courant Number mean: 0.374383 max: 0.735576
DILUPBiCG:  Solving for T, Initial residual = 0.00675713, Final residual = 6.85861e-10, No Iterations 3
DILUPBiCG:  Solving for T, Initial residual = 2.47269e-05, Final residual = 8.96181e-10, No Iterations 2
DILUPBiCG:  Solving for T, Initial residual = 3.77364e-08, Final residual = 2.92914e-10, No Iterations 1
DILUPBiCG:  Solving for T, Initial residual = 2.90599e-10, Final residual = 2.90599e-10, No Iterations 0
 T goes from min(T) [0 0 0 0 0 0 0] 9.12626e-21 to max(T) [0 0 0 0 0 0 0] 0.95348

ExecutionTime = 13.97 s  ClockTime = 252 s

Time = 0.07
Courant Number mean: 0.37434 max: 0.735513
DILUPBiCG:  Solving for T, Initial residual = 0.00675905, Final residual = 6.77837e-10, No Iterations 3
DILUPBiCG:  Solving for T, Initial residual = 2.47966e-05, Final residual = 8.58787e-10, No Iterations 2
DILUPBiCG:  Solving for T, Initial residual = 3.81214e-08, Final residual = 2.94037e-10, No Iterations 1
DILUPBiCG:  Solving for T, Initial residual = 2.93542e-10, Final residual = 2.93542e-10, No Iterations 0
 T goes from min(T) [0 0 0 0 0 0 0] 8.60229e-21 to max(T) [0 0 0 0 0 0 0] 0.953987

ExecutionTime = 14.46 s  ClockTime = 260 s

Time = 0.075
Courant Number mean: 0.374309 max: 0.735437
DILUPBiCG:  Solving for T, Initial residual = 0.0067614, Final residual = 6.70985e-10, No Iterations 3
DILUPBiCG:  Solving for T, Initial residual = 2.48698e-05, Final residual = 8.20659e-10, No Iterations 2
DILUPBiCG:  Solving for T, Initial residual = 3.85426e-08, Final residual = 2.95145e-10, No Iterations 1
DILUPBiCG:  Solving for T, Initial residual = 2.95803e-10, Final residual = 2.95803e-10, No Iterations 0
 T goes from min(T) [0 0 0 0 0 0 0] 8.52371e-21 to max(T) [0 0 0 0 0 0 0] 0.953569

ExecutionTime = 14.94 s  ClockTime = 268 s

Time = 0.08
Courant Number mean: 0.374304 max: 0.735368
DILUPBiCG:  Solving for T, Initial residual = 0.0067634, Final residual = 6.65894e-10, No Iterations 3
DILUPBiCG:  Solving for T, Initial residual = 2.49437e-05, Final residual = 7.81909e-10, No Iterations 2
DILUPBiCG:  Solving for T, Initial residual = 3.89345e-08, Final residual = 2.95848e-10, No Iterations 1
DILUPBiCG:  Solving for T, Initial residual = 2.92889e-10, Final residual = 2.92889e-10, No Iterations 0
 T goes from min(T) [0 0 0 0 0 0 0] 8.88463e-21 to max(T) [0 0 0 0 0 0 0] 0.953586

ExecutionTime = 15.42 s  ClockTime = 276 s

Time = 0.085
Courant Number mean: 0.374278 max: 0.735277
DILUPBiCG:  Solving for T, Initial residual = 0.00676563, Final residual = 6.6175e-10, No Iterations 3
DILUPBiCG:  Solving for T, Initial residual = 2.50207e-05, Final residual = 7.41841e-10, No Iterations 2
DILUPBiCG:  Solving for T, Initial residual = 3.93395e-08, Final residual = 2.96673e-10, No Iterations 1
DILUPBiCG:  Solving for T, Initial residual = 2.9313e-10, Final residual = 2.9313e-10, No Iterations 0
 T goes from min(T) [0 0 0 0 0 0 0] 9.21314e-21 to max(T) [0 0 0 0 0 0 0] 0.953662

ExecutionTime = 15.9 s  ClockTime = 285 s

Time = 0.09
Courant Number mean: 0.374231 max: 0.735203
DILUPBiCG:  Solving for T, Initial residual = 0.00676749, Final residual = 6.58388e-10, No Iterations 3
DILUPBiCG:  Solving for T, Initial residual = 2.51027e-05, Final residual = 7.00098e-10, No Iterations 2
DILUPBiCG:  Solving for T, Initial residual = 3.97816e-08, Final residual = 2.97666e-10, No Iterations 1
DILUPBiCG:  Solving for T, Initial residual = 2.95892e-10, Final residual = 2.95892e-10, No Iterations 0
 T goes from min(T) [0 0 0 0 0 0 0] 8.62968e-21 to max(T) [0 0 0 0 0 0 0] 0.95353

ExecutionTime = 16.49 s  ClockTime = 295 s

Time = 0.095
Courant Number mean: 0.374182 max: 0.735099
DILUPBiCG:  Solving for T, Initial residual = 0.0067698, Final residual = 6.56241e-10, No Iterations 3
DILUPBiCG:  Solving for T, Initial residual = 2.51846e-05, Final residual = 6.57023e-10, No Iterations 2
DILUPBiCG:  Solving for T, Initial residual = 4.02631e-08, Final residual = 2.98769e-10, No Iterations 1
DILUPBiCG:  Solving for T, Initial residual = 3.0025e-10, Final residual = 3.0025e-10, No Iterations 0
 T goes from min(T) [0 0 0 0 0 0 0] 8.48113e-21 to max(T) [0 0 0 0 0 0 0] 0.953631

ExecutionTime = 17.01 s  ClockTime = 303 s

Time = 0.1
Courant Number mean: 0.374173 max: 0.735018
DILUPBiCG:  Solving for T, Initial residual = 0.00677146, Final residual = 6.55709e-10, No Iterations 3
DILUPBiCG:  Solving for T, Initial residual = 2.52683e-05, Final residual = 6.13324e-10, No Iterations 2
DILUPBiCG:  Solving for T, Initial residual = 4.07133e-08, Final residual = 2.99334e-10, No Iterations 1
DILUPBiCG:  Solving for T, Initial residual = 2.97172e-10, Final residual = 2.97172e-10, No Iterations 0
 T goes from min(T) [0 0 0 0 0 0 0] 8.76223e-21 to max(T) [0 0 0 0 0 0 0] 0.95391

ExecutionTime = 17.5 s  ClockTime = 312 s

Time = 0.105
Courant Number mean: 0.374143 max: 0.734899
DILUPBiCG:  Solving for T, Initial residual = 0.00677309, Final residual = 6.56312e-10, No Iterations 3
DILUPBiCG:  Solving for T, Initial residual = 2.53557e-05, Final residual = 5.67565e-10, No Iterations 2
DILUPBiCG:  Solving for T, Initial residual = 4.11785e-08, Final residual = 2.99965e-10, No Iterations 1
DILUPBiCG:  Solving for T, Initial residual = 2.97169e-10, Final residual = 2.97169e-10, No Iterations 0
 T goes from min(T) [0 0 0 0 0 0 0] 9.30047e-21 to max(T) [0 0 0 0 0 0 0] 0.953267

ExecutionTime = 17.98 s  ClockTime = 320 s

Time = 0.11
Courant Number mean: 0.374092 max: 0.734813
DILUPBiCG:  Solving for T, Initial residual = 0.00677511, Final residual = 6.57795e-10, No Iterations 3
DILUPBiCG:  Solving for T, Initial residual = 2.54421e-05, Final residual = 5.67629e-10, No Iterations 2
DILUPBiCG:  Solving for T, Initial residual = 4.16652e-08, Final residual = 3.00816e-10, No Iterations 1
DILUPBiCG:  Solving for T, Initial residual = 3.0005e-10, Final residual = 3.0005e-10, No Iterations 0
 T goes from min(T) [0 0 0 0 0 0 0] 8.65919e-21 to max(T) [0 0 0 0 0 0 0] 0.953748

ExecutionTime = 18.48 s  ClockTime = 328 s

Time = 0.115
Courant Number mean: 0.374027 max: 0.73468
DILUPBiCG:  Solving for T, Initial residual = 0.00677645, Final residual = 6.60569e-10, No Iterations 3
DILUPBiCG:  Solving for T, Initial residual = 2.55284e-05, Final residual = 5.78483e-10, No Iterations 2
DILUPBiCG:  Solving for T, Initial residual = 4.22156e-08, Final residual = 3.01851e-10, No Iterations 1
DILUPBiCG:  Solving for T, Initial residual = 3.06432e-10, Final residual = 3.06432e-10, No Iterations 0
 T goes from min(T) [0 0 0 0 0 0 0] 8.44486e-21 to max(T) [0 0 0 0 0 0 0] 0.95392

ExecutionTime = 18.98 s  ClockTime = 337 s

Time = 0.12
Courant Number mean: 0.374014 max: 0.734589
DILUPBiCG:  Solving for T, Initial residual = 0.00677854, Final residual = 6.65959e-10, No Iterations 3
DILUPBiCG:  Solving for T, Initial residual = 2.562e-05, Final residual = 5.90379e-10, No Iterations 2
DILUPBiCG:  Solving for T, Initial residual = 4.27256e-08, Final residual = 3.0231e-10, No Iterations 1
DILUPBiCG:  Solving for T, Initial residual = 3.03516e-10, Final residual = 3.03516e-10, No Iterations 0
 T goes from min(T) [0 0 0 0 0 0 0] 8.65219e-21 to max(T) [0 0 0 0 0 0 0] 0.953659

ExecutionTime = 19.49 s  ClockTime = 346 s

Time = 0.125
Courant Number mean: 0.37398 max: 0.73444
DILUPBiCG:  Solving for T, Initial residual = 0.00677979, Final residual = 6.73389e-10, No Iterations 3
DILUPBiCG:  Solving for T, Initial residual = 2.57115e-05, Final residual = 6.04846e-10, No Iterations 2
DILUPBiCG:  Solving for T, Initial residual = 4.32241e-08, Final residual = 3.02696e-10, No Iterations 1
DILUPBiCG:  Solving for T, Initial residual = 3.03081e-10, Final residual = 3.03081e-10, No Iterations 0
 T goes from min(T) [0 0 0 0 0 0 0] 9.28038e-21 to max(T) [0 0 0 0 0 0 0] 0.953694

ExecutionTime = 20 s  ClockTime = 354 s

Time = 0.13
Courant Number mean: 0.373925 max: 0.734344
DILUPBiCG:  Solving for T, Initial residual = 0.00678101, Final residual = 6.83457e-10, No Iterations 3
DILUPBiCG:  Solving for T, Initial residual = 2.58013e-05, Final residual = 6.22284e-10, No Iterations 2
DILUPBiCG:  Solving for T, Initial residual = 4.3778e-08, Final residual = 3.03385e-10, No Iterations 1
DILUPBiCG:  Solving for T, Initial residual = 3.06815e-10, Final residual = 3.06815e-10, No Iterations 0
 T goes from min(T) [0 0 0 0 0 0 0] 8.69485e-21 to max(T) [0 0 0 0 0 0 0] 0.954104

ExecutionTime = 20.5 s  ClockTime = 362 s

Time = 0.135
Courant Number mean: 0.373849 max: 0.734191
DILUPBiCG:  Solving for T, Initial residual = 0.0067824, Final residual = 6.9662e-10, No Iterations 3
DILUPBiCG:  Solving for T, Initial residual = 2.58925e-05, Final residual = 6.43125e-10, No Iterations 2
DILUPBiCG:  Solving for T, Initial residual = 4.43757e-08, Final residual = 3.04285e-10, No Iterations 1
DILUPBiCG:  Solving for T, Initial residual = 3.14345e-10, Final residual = 3.14345e-10, No Iterations 0
 T goes from min(T) [0 0 0 0 0 0 0] 8.41793e-21 to max(T) [0 0 0 0 0 0 0] 0.953715

ExecutionTime = 20.96 s  ClockTime = 370 s

Time = 0.14
Courant Number mean: 0.373826 max: 0.73408
DILUPBiCG:  Solving for T, Initial residual = 0.00678403, Final residual = 7.15948e-10, No Iterations 3
DILUPBiCG:  Solving for T, Initial residual = 2.59877e-05, Final residual = 6.66184e-10, No Iterations 2
DILUPBiCG:  Solving for T, Initial residual = 4.49611e-08, Final residual = 3.04853e-10, No Iterations 1
DILUPBiCG:  Solving for T, Initial residual = 3.13057e-10, Final residual = 3.13057e-10, No Iterations 0
 T goes from min(T) [0 0 0 0 0 0 0] 8.55606e-21 to max(T) [0 0 0 0 0 0 0] 0.953514

ExecutionTime = 21.48 s  ClockTime = 378 s

Time = 0.145
Courant Number mean: 0.373788 max: 0.733921
DILUPBiCG:  Solving for T, Initial residual = 0.006785, Final residual = 7.42957e-10, No Iterations 3
DILUPBiCG:  Solving for T, Initial residual = 2.60806e-05, Final residual = 6.93822e-10, No Iterations 2
DILUPBiCG:  Solving for T, Initial residual = 4.5541e-08, Final residual = 3.05251e-10, No Iterations 1
DILUPBiCG:  Solving for T, Initial residual = 3.13162e-10, Final residual = 3.13162e-10, No Iterations 0
 T goes from min(T) [0 0 0 0 0 0 0] 9.10843e-21 to max(T) [0 0 0 0 0 0 0] 0.95414

ExecutionTime = 21.96 s  ClockTime = 386 s

Time = 0.15
Courant Number mean: 0.373729 max: 0.733795
DILUPBiCG:  Solving for T, Initial residual = 0.00678611, Final residual = 7.83391e-10, No Iterations 3
DILUPBiCG:  Solving for T, Initial residual = 2.61733e-05, Final residual = 7.26651e-10, No Iterations 2
DILUPBiCG:  Solving for T, Initial residual = 4.61425e-08, Final residual = 3.05774e-10, No Iterations 1
DILUPBiCG:  Solving for T, Initial residual = 3.18759e-10, Final residual = 3.18759e-10, No Iterations 0
 T goes from min(T) [0 0 0 0 0 0 0] 8.73873e-21 to max(T) [0 0 0 0 0 0 0] 0.953987

ExecutionTime = 22.51 s  ClockTime = 396 s

Time = 0.155
Courant Number mean: 0.37365 max: 0.733632
DILUPBiCG:  Solving for T, Initial residual = 0.00678696, Final residual = 8.55408e-10, No Iterations 3
DILUPBiCG:  Solving for T, Initial residual = 2.627e-05, Final residual = 7.65872e-10, No Iterations 2
DILUPBiCG:  Solving for T, Initial residual = 4.67771e-08, Final residual = 3.06571e-10, No Iterations 1
DILUPBiCG:  Solving for T, Initial residual = 3.27234e-10, Final residual = 3.27234e-10, No Iterations 0
 T goes from min(T) [0 0 0 0 0 0 0] 8.40181e-21 to max(T) [0 0 0 0 0 0 0] 0.953245

ExecutionTime = 22.98 s  ClockTime = 404 s

Time = 0.16
Courant Number mean: 0.373609 max: 0.733492
DILUPBiCG:  Solving for T, Initial residual = 0.00678832, Final residual = 9.87682e-10, No Iterations 3
DILUPBiCG:  Solving for T, Initial residual = 2.63629e-05, Final residual = 8.11125e-10, No Iterations 2
DILUPBiCG:  Solving for T, Initial residual = 4.74399e-08, Final residual = 3.07104e-10, No Iterations 1
DILUPBiCG:  Solving for T, Initial residual = 3.29168e-10, Final residual = 3.29168e-10, No Iterations 0
 T goes from min(T) [0 0 0 0 0 0 0] 8.47437e-21 to max(T) [0 0 0 0 0 0 0] 0.954072

ExecutionTime = 23.46 s  ClockTime = 412 s

Time = 0.165
Courant Number mean: 0.373567 max: 0.733322
DILUPBiCG:  Solving for T, Initial residual = 0.00678909, Final residual = 1.29102e-09, No Iterations 3
DILUPBiCG:  Solving for T, Initial residual = 2.64578e-05, Final residual = 8.64989e-10, No Iterations 2
DILUPBiCG:  Solving for T, Initial residual = 4.80789e-08, Final residual = 3.07497e-10, No Iterations 1
DILUPBiCG:  Solving for T, Initial residual = 3.30192e-10, Final residual = 3.30192e-10, No Iterations 0
 T goes from min(T) [0 0 0 0 0 0 0] 8.95535e-21 to max(T) [0 0 0 0 0 0 0] 0.954136

ExecutionTime = 23.98 s  ClockTime = 421 s

Time = 0.17
Courant Number mean: 0.373504 max: 0.733167
DILUPBiCG:  Solving for T, Initial residual = 0.00678983, Final residual = 2.41097e-09, No Iterations 3
DILUPBiCG:  Solving for T, Initial residual = 2.65553e-05, Final residual = 9.3201e-10, No Iterations 2
DILUPBiCG:  Solving for T, Initial residual = 4.87722e-08, Final residual = 3.08231e-10, No Iterations 1
DILUPBiCG:  Solving for T, Initial residual = 3.3695e-10, Final residual = 3.3695e-10, No Iterations 0
 T goes from min(T) [0 0 0 0 0 0 0] 8.79183e-21 to max(T) [0 0 0 0 0 0 0] 0.953474

ExecutionTime = 24.51 s  ClockTime = 430 s

Time = 0.175
Courant Number mean: 0.373421 max: 0.732993
DILUPBiCG:  Solving for T, Initial residual = 0.00679021, Final residual = 8.42196e-09, No Iterations 3
DILUPBiCG:  Solving for T, Initial residual = 2.66562e-05, Final residual = 1.01508e-09, No Iterations 2
DILUPBiCG:  Solving for T, Initial residual = 4.95018e-08, Final residual = 3.09049e-10, No Iterations 1
DILUPBiCG:  Solving for T, Initial residual = 3.47383e-10, Final residual = 3.47383e-10, No Iterations 0
 T goes from min(T) [0 0 0 0 0 0 0] 8.39711e-21 to max(T) [0 0 0 0 0 0 0] 0.953931

ExecutionTime = 25.01 s  ClockTime = 438 s

Time = 0.18
Courant Number mean: 0.373363 max: 0.732824
DILUPBiCG:  Solving for T, Initial residual = 0.00679137, Final residual = 1.10215e-09, No Iterations 3
DILUPBiCG:  Solving for T, Initial residual = 2.67487e-05, Final residual = 1.11442e-09, No Iterations 2
DILUPBiCG:  Solving for T, Initial residual = 5.02114e-08, Final residual = 3.09537e-10, No Iterations 1
DILUPBiCG:  Solving for T, Initial residual = 3.52562e-10, Final residual = 3.52562e-10, No Iterations 0
 T goes from min(T) [0 0 0 0 0 0 0] 8.40714e-21 to max(T) [0 0 0 0 0 0 0] 0.954201

ExecutionTime = 25.51 s  ClockTime = 447 s

Time = 0.185
Courant Number mean: 0.373317 max: 0.732643
DILUPBiCG:  Solving for T, Initial residual = 0.00679177, Final residual = 6.41889e-10, No Iterations 3
DILUPBiCG:  Solving for T, Initial residual = 2.68462e-05, Final residual = 1.23091e-09, No Iterations 2
DILUPBiCG:  Solving for T, Initial residual = 5.09582e-08, Final residual = 3.10186e-10, No Iterations 1
DILUPBiCG:  Solving for T, Initial residual = 3.54238e-10, Final residual = 3.54238e-10, No Iterations 0
 T goes from min(T) [0 0 0 0 0 0 0] 8.82044e-21 to max(T) [0 0 0 0 0 0 0] 0.953762

ExecutionTime = 26.01 s  ClockTime = 455 s

Time = 0.19
Courant Number mean: 0.37325 max: 0.73246
DILUPBiCG:  Solving for T, Initial residual = 0.00679231, Final residual = 5.20963e-10, No Iterations 3
DILUPBiCG:  Solving for T, Initial residual = 2.69451e-05, Final residual = 1.37313e-09, No Iterations 2
DILUPBiCG:  Solving for T, Initial residual = 5.17482e-08, Final residual = 3.10946e-10, No Iterations 1
DILUPBiCG:  Solving for T, Initial residual = 3.6235e-10, Final residual = 3.6235e-10, No Iterations 0
 T goes from min(T) [0 0 0 0 0 0 0] 8.85463e-21 to max(T) [0 0 0 0 0 0 0] 0.953738

ExecutionTime = 26.52 s  ClockTime = 464 s

Time = 0.195
Courant Number mean: 0.373164 max: 0.732274
DILUPBiCG:  Solving for T, Initial residual = 0.00679278, Final residual = 4.82045e-10, No Iterations 3
DILUPBiCG:  Solving for T, Initial residual = 2.7043e-05, Final residual = 1.55122e-09, No Iterations 2
DILUPBiCG:  Solving for T, Initial residual = 5.25579e-08, Final residual = 3.11732e-10, No Iterations 1
DILUPBiCG:  Solving for T, Initial residual = 3.75415e-10, Final residual = 3.75415e-10, No Iterations 0
 T goes from min(T) [0 0 0 0 0 0 0] 8.40401e-21 to max(T) [0 0 0 0 0 0 0] 0.954205

ExecutionTime = 27.02 s  ClockTime = 473 s

Time = 0.2
Courant Number mean: 0.373089 max: 0.732077
DILUPBiCG:  Solving for T, Initial residual = 0.00679341, Final residual = 4.74488e-10, No Iterations 3
DILUPBiCG:  Solving for T, Initial residual = 2.71431e-05, Final residual = 1.77542e-09, No Iterations 2
DILUPBiCG:  Solving for T, Initial residual = 5.3385e-08, Final residual = 3.12644e-10, No Iterations 1
DILUPBiCG:  Solving for T, Initial residual = 3.83732e-10, Final residual = 3.83732e-10, No Iterations 0
 T goes from min(T) [0 0 0 0 0 0 0] 8.3541e-21 to max(T) [0 0 0 0 0 0 0] 0.95398

ExecutionTime = 27.53 s  ClockTime = 481 s

Time = 0.205
Courant Number mean: 0.373039 max: 0.731885
DILUPBiCG:  Solving for T, Initial residual = 0.00679373, Final residual = 4.74949e-10, No Iterations 3
DILUPBiCG:  Solving for T, Initial residual = 2.72411e-05, Final residual = 2.06951e-09, No Iterations 2
DILUPBiCG:  Solving for T, Initial residual = 5.42746e-08, Final residual = 3.13517e-10, No Iterations 1
DILUPBiCG:  Solving for T, Initial residual = 3.85653e-10, Final residual = 3.85653e-10, No Iterations 0
 T goes from min(T) [0 0 0 0 0 0 0] 8.7029e-21 to max(T) [0 0 0 0 0 0 0] 0.953497

ExecutionTime = 28.03 s  ClockTime = 490 s

Time = 0.21
Courant Number mean: 0.372969 max: 0.731673
DILUPBiCG:  Solving for T, Initial residual = 0.00679417, Final residual = 4.76766e-10, No Iterations 3
DILUPBiCG:  Solving for T, Initial residual = 2.73421e-05, Final residual = 2.52787e-09, No Iterations 2
DILUPBiCG:  Solving for T, Initial residual = 5.52246e-08, Final residual = 3.14634e-10, No Iterations 1
DILUPBiCG:  Solving for T, Initial residual = 3.96499e-10, Final residual = 3.96499e-10, No Iterations 0
 T goes from min(T) [0 0 0 0 0 0 0] 8.92727e-21 to max(T) [0 0 0 0 0 0 0] 0.954156

ExecutionTime = 28.53 s  ClockTime = 498 s

Time = 0.215
Courant Number mean: 0.372878 max: 0.731477
DILUPBiCG:  Solving for T, Initial residual = 0.00679401, Final residual = 4.7984e-10, No Iterations 3
DILUPBiCG:  Solving for T, Initial residual = 2.74437e-05, Final residual = 3.28362e-09, No Iterations 2
DILUPBiCG:  Solving for T, Initial residual = 5.62852e-08, Final residual = 3.16303e-10, No Iterations 1
DILUPBiCG:  Solving for T, Initial residual = 4.12332e-10, Final residual = 4.12332e-10, No Iterations 0
 T goes from min(T) [0 0 0 0 0 0 0] 8.42242e-21 to max(T) [0 0 0 0 0 0 0] 0.954141

ExecutionTime = 29.02 s  ClockTime = 506 s

Time = 0.22
Courant Number mean: 0.372786 max: 0.731251
DILUPBiCG:  Solving for T, Initial residual = 0.00679482, Final residual = 4.83048e-10, No Iterations 3
DILUPBiCG:  Solving for T, Initial residual = 2.75467e-05, Final residual = 4.51901e-09, No Iterations 2
DILUPBiCG:  Solving for T, Initial residual = 5.75574e-08, Final residual = 3.18747e-10, No Iterations 1
DILUPBiCG:  Solving for T, Initial residual = 4.25232e-10, Final residual = 4.25232e-10, No Iterations 0
 T goes from min(T) [0 0 0 0 0 0 0] 8.31483e-21 to max(T) [0 0 0 0 0 0 0] 0.953483

ExecutionTime = 29.53 s  ClockTime = 515 s

Time = 0.225
Courant Number mean: 0.372732 max: 0.731048
DILUPBiCG:  Solving for T, Initial residual = 0.00679511, Final residual = 4.85308e-10, No Iterations 3
DILUPBiCG:  Solving for T, Initial residual = 2.76465e-05, Final residual = 6.74726e-09, No Iterations 2
DILUPBiCG:  Solving for T, Initial residual = 5.92013e-08, Final residual = 3.2257e-10, No Iterations 1
DILUPBiCG:  Solving for T, Initial residual = 4.28961e-10, Final residual = 4.28961e-10, No Iterations 0
 T goes from min(T) [0 0 0 0 0 0 0] 8.60189e-21 to max(T) [0 0 0 0 0 0 0] 0.954042

ExecutionTime = 30.04 s  ClockTime = 524 s

Time = 0.23
Courant Number mean: 0.372658 max: 0.730808
DILUPBiCG:  Solving for T, Initial residual = 0.0067954, Final residual = 4.87016e-10, No Iterations 3
DILUPBiCG:  Solving for T, Initial residual = 2.77503e-05, Final residual = 2.24425e-11, No Iterations 3
DILUPBiCG:  Solving for T, Initial residual = 5.74532e-08, Final residual = 3.11093e-10, No Iterations 1
DILUPBiCG:  Solving for T, Initial residual = 4.32456e-10, Final residual = 4.32456e-10, No Iterations 0
 T goes from min(T) [0 0 0 0 0 0 0] 9.00973e-21 to max(T) [0 0 0 0 0 0 0] 0.954234

ExecutionTime = 30.56 s  ClockTime = 533 s

Time = 0.235
Courant Number mean: 0.372563 max: 0.7306
DILUPBiCG:  Solving for T, Initial residual = 0.00679505, Final residual = 4.87957e-10, No Iterations 3
DILUPBiCG:  Solving for T, Initial residual = 2.78564e-05, Final residual = 1.45264e-11, No Iterations 3
DILUPBiCG:  Solving for T, Initial residual = 5.83611e-08, Final residual = 3.11879e-10, No Iterations 1
DILUPBiCG:  Solving for T, Initial residual = 4.4993e-10, Final residual = 4.4993e-10, No Iterations 0
 T goes from min(T) [0 0 0 0 0 0 0] 8.4521e-21 to max(T) [0 0 0 0 0 0 0] 0.953799

ExecutionTime = 31.06 s  ClockTime = 541 s

Time = 0.24
Courant Number mean: 0.372455 max: 0.730346
DILUPBiCG:  Solving for T, Initial residual = 0.00679565, Final residual = 4.88389e-10, No Iterations 3
DILUPBiCG:  Solving for T, Initial residual = 2.79641e-05, Final residual = 1.08675e-11, No Iterations 3
DILUPBiCG:  Solving for T, Initial residual = 5.92835e-08, Final residual = 3.12803e-10, No Iterations 1
DILUPBiCG:  Solving for T, Initial residual = 4.67318e-10, Final residual = 4.67318e-10, No Iterations 0
 T goes from min(T) [0 0 0 0 0 0 0] 8.28882e-21 to max(T) [0 0 0 0 0 0 0] 0.953824

ExecutionTime = 31.56 s  ClockTime = 550 s

Time = 0.245
Courant Number mean: 0.372398 max: 0.730133
DILUPBiCG:  Solving for T, Initial residual = 0.00679594, Final residual = 4.88191e-10, No Iterations 3
DILUPBiCG:  Solving for T, Initial residual = 2.80667e-05, Final residual = 8.89235e-12, No Iterations 3
DILUPBiCG:  Solving for T, Initial residual = 6.01389e-08, Final residual = 3.13268e-10, No Iterations 1
DILUPBiCG:  Solving for T, Initial residual = 4.66717e-10, Final residual = 4.66717e-10, No Iterations 0
 T goes from min(T) [0 0 0 0 0 0 0] 8.51659e-21 to max(T) [0 0 0 0 0 0 0] 0.954226

ExecutionTime = 32.06 s  ClockTime = 558 s

Time = 0.25
Courant Number mean: 0.37232 max: 0.729863
DILUPBiCG:  Solving for T, Initial residual = 0.00679667, Final residual = 4.87398e-10, No Iterations 3
DILUPBiCG:  Solving for T, Initial residual = 2.81722e-05, Final residual = 7.4513e-09, No Iterations 2
DILUPBiCG:  Solving for T, Initial residual = 5.97287e-08, Final residual = 3.11033e-10, No Iterations 1
DILUPBiCG:  Solving for T, Initial residual = 4.79783e-10, Final residual = 4.79783e-10, No Iterations 0
 T goes from min(T) [0 0 0 0 0 0 0] 9.10185e-21 to max(T) [0 0 0 0 0 0 0] 0.954015

ExecutionTime = 32.57 s  ClockTime = 567 s

Time = 0.255
Courant Number mean: 0.372221 max: 0.729645
DILUPBiCG:  Solving for T, Initial residual = 0.00679596, Final residual = 4.86537e-10, No Iterations 3
DILUPBiCG:  Solving for T, Initial residual = 2.82859e-05, Final residual = 5.58638e-09, No Iterations 2
DILUPBiCG:  Solving for T, Initial residual = 6.09567e-08, Final residual = 3.12886e-10, No Iterations 1
DILUPBiCG:  Solving for T, Initial residual = 4.98886e-10, Final residual = 4.98886e-10, No Iterations 0
 T goes from min(T) [0 0 0 0 0 0 0] 8.49274e-21 to max(T) [0 0 0 0 0 0 0] 0.95343

ExecutionTime = 33.08 s  ClockTime = 576 s

Time = 0.26
Courant Number mean: 0.372102 max: 0.729371
DILUPBiCG:  Solving for T, Initial residual = 0.00679676, Final residual = 4.85294e-10, No Iterations 3
DILUPBiCG:  Solving for T, Initial residual = 2.83927e-05, Final residual = 4.5131e-09, No Iterations 2
DILUPBiCG:  Solving for T, Initial residual = 6.21481e-08, Final residual = 3.14612e-10, No Iterations 1
DILUPBiCG:  Solving for T, Initial residual = 5.22158e-10, Final residual = 5.22158e-10, No Iterations 0
 T goes from min(T) [0 0 0 0 0 0 0] 8.27552e-21 to max(T) [0 0 0 0 0 0 0] 0.954048

ExecutionTime = 33.57 s  ClockTime = 584 s

Time = 0.265
Courant Number mean: 0.372035 max: 0.729138
DILUPBiCG:  Solving for T, Initial residual = 0.00679721, Final residual = 4.83731e-10, No Iterations 3
DILUPBiCG:  Solving for T, Initial residual = 2.8502e-05, Final residual = 3.83938e-09, No Iterations 2
DILUPBiCG:  Solving for T, Initial residual = 6.32193e-08, Final residual = 3.15767e-10, No Iterations 1
DILUPBiCG:  Solving for T, Initial residual = 5.21223e-10, Final residual = 5.21223e-10, No Iterations 0
 T goes from min(T) [0 0 0 0 0 0 0] 8.44618e-21 to max(T) [0 0 0 0 0 0 0] 0.954067

ExecutionTime = 34.08 s  ClockTime = 593 s

Time = 0.27
Courant Number mean: 0.371953 max: 0.728858
DILUPBiCG:  Solving for T, Initial residual = 0.00679813, Final residual = 4.8196e-10, No Iterations 3
DILUPBiCG:  Solving for T, Initial residual = 2.8614e-05, Final residual = 3.36116e-09, No Iterations 2
DILUPBiCG:  Solving for T, Initial residual = 6.42635e-08, Final residual = 3.16916e-10, No Iterations 1
DILUPBiCG:  Solving for T, Initial residual = 5.34574e-10, Final residual = 5.34574e-10, No Iterations 0
 T goes from min(T) [0 0 0 0 0 0 0] 9.00677e-21 to max(T) [0 0 0 0 0 0 0] 0.953518

ExecutionTime = 34.58 s  ClockTime = 601 s

Time = 0.275
Courant Number mean: 0.371851 max: 0.728611
DILUPBiCG:  Solving for T, Initial residual = 0.0067978, Final residual = 4.79888e-10, No Iterations 3
DILUPBiCG:  Solving for T, Initial residual = 2.87276e-05, Final residual = 3.00184e-09, No Iterations 2
DILUPBiCG:  Solving for T, Initial residual = 6.53642e-08, Final residual = 3.18318e-10, No Iterations 1
DILUPBiCG:  Solving for T, Initial residual = 5.55496e-10, Final residual = 5.55496e-10, No Iterations 0
 T goes from min(T) [0 0 0 0 0 0 0] 8.54396e-21 to max(T) [0 0 0 0 0 0 0] 0.953593

ExecutionTime = 35.07 s  ClockTime = 609 s

Time = 0.28
Courant Number mean: 0.371727 max: 0.728326
DILUPBiCG:  Solving for T, Initial residual = 0.00679848, Final residual = 4.7801e-10, No Iterations 3
DILUPBiCG:  Solving for T, Initial residual = 2.88444e-05, Final residual = 2.72124e-09, No Iterations 2
DILUPBiCG:  Solving for T, Initial residual = 6.64823e-08, Final residual = 3.20024e-10, No Iterations 1
DILUPBiCG:  Solving for T, Initial residual = 5.80866e-10, Final residual = 5.80866e-10, No Iterations 0
 T goes from min(T) [0 0 0 0 0 0 0] 8.27437e-21 to max(T) [0 0 0 0 0 0 0] 0.953851

ExecutionTime = 35.57 s  ClockTime = 618 s

Time = 0.285
Courant Number mean: 0.371643 max: 0.728065
DILUPBiCG:  Solving for T, Initial residual = 0.0067988, Final residual = 4.75863e-10, No Iterations 3
DILUPBiCG:  Solving for T, Initial residual = 2.89538e-05, Final residual = 2.50313e-09, No Iterations 2
DILUPBiCG:  Solving for T, Initial residual = 6.75448e-08, Final residual = 3.21181e-10, No Iterations 1
DILUPBiCG:  Solving for T, Initial residual = 5.83307e-10, Final residual = 5.83307e-10, No Iterations 0
 T goes from min(T) [0 0 0 0 0 0 0] 8.38986e-21 to max(T) [0 0 0 0 0 0 0] 0.953831

ExecutionTime = 36.07 s  ClockTime = 626 s

Time = 0.29
Courant Number mean: 0.371558 max: 0.727774
DILUPBiCG:  Solving for T, Initial residual = 0.00680023, Final residual = 4.7358e-10, No Iterations 3
DILUPBiCG:  Solving for T, Initial residual = 2.90716e-05, Final residual = 2.32541e-09, No Iterations 2
DILUPBiCG:  Solving for T, Initial residual = 6.86164e-08, Final residual = 3.22506e-10, No Iterations 1
DILUPBiCG:  Solving for T, Initial residual = 5.95811e-10, Final residual = 5.95811e-10, No Iterations 0
 T goes from min(T) [0 0 0 0 0 0 0] 8.89183e-21 to max(T) [0 0 0 0 0 0 0] 0.952955

ExecutionTime = 36.57 s  ClockTime = 635 s

Time = 0.295
Courant Number mean: 0.371452 max: 0.727498
DILUPBiCG:  Solving for T, Initial residual = 0.00680074, Final residual = 4.71337e-10, No Iterations 3
DILUPBiCG:  Solving for T, Initial residual = 2.91916e-05, Final residual = 2.17597e-09, No Iterations 2
DILUPBiCG:  Solving for T, Initial residual = 6.97551e-08, Final residual = 3.24126e-10, No Iterations 1
DILUPBiCG:  Solving for T, Initial residual = 6.19135e-10, Final residual = 6.19135e-10, No Iterations 0
 T goes from min(T) [0 0 0 0 0 0 0] 8.6054e-21 to max(T) [0 0 0 0 0 0 0] 0.953632

ExecutionTime = 37.07 s  ClockTime = 643 s

Time = 0.3
Courant Number mean: 0.371325 max: 0.727203
DILUPBiCG:  Solving for T, Initial residual = 0.00680114, Final residual = 4.69078e-10, No Iterations 3
DILUPBiCG:  Solving for T, Initial residual = 2.93154e-05, Final residual = 2.04815e-09, No Iterations 2
DILUPBiCG:  Solving for T, Initial residual = 7.09277e-08, Final residual = 3.25914e-10, No Iterations 1
DILUPBiCG:  Solving for T, Initial residual = 6.45459e-10, Final residual = 6.45459e-10, No Iterations 0
 T goes from min(T) [0 0 0 0 0 0 0] 8.28482e-21 to max(T) [0 0 0 0 0 0 0] 0.953925

ExecutionTime = 37.64 s  ClockTime = 653 s

Time = 0.305
Courant Number mean: 0.371224 max: 0.726913
DILUPBiCG:  Solving for T, Initial residual = 0.00680227, Final residual = 4.66968e-10, No Iterations 3
DILUPBiCG:  Solving for T, Initial residual = 2.94348e-05, Final residual = 1.94083e-09, No Iterations 2
DILUPBiCG:  Solving for T, Initial residual = 7.2059e-08, Final residual = 3.27711e-10, No Iterations 1
DILUPBiCG:  Solving for T, Initial residual = 6.53993e-10, Final residual = 6.53993e-10, No Iterations 0
 T goes from min(T) [0 0 0 0 0 0 0] 8.34689e-21 to max(T) [0 0 0 0 0 0 0] 0.953627

ExecutionTime = 38.16 s  ClockTime = 662 s

Time = 0.31
Courant Number mean: 0.371135 max: 0.726611
DILUPBiCG:  Solving for T, Initial residual = 0.00680347, Final residual = 4.65094e-10, No Iterations 3
DILUPBiCG:  Solving for T, Initial residual = 2.95577e-05, Final residual = 1.84822e-09, No Iterations 2
DILUPBiCG:  Solving for T, Initial residual = 7.31844e-08, Final residual = 3.29211e-10, No Iterations 1
DILUPBiCG:  Solving for T, Initial residual = 6.6375e-10, Final residual = 6.6375e-10, No Iterations 0
 T goes from min(T) [0 0 0 0 0 0 0] 8.7923e-21 to max(T) [0 0 0 0 0 0 0] 0.953391

ExecutionTime = 38.66 s  ClockTime = 671 s

Time = 0.315
Courant Number mean: 0.371026 max: 0.726307
DILUPBiCG:  Solving for T, Initial residual = 0.00680519, Final residual = 4.63195e-10, No Iterations 3
DILUPBiCG:  Solving for T, Initial residual = 2.96908e-05, Final residual = 1.7673e-09, No Iterations 2
DILUPBiCG:  Solving for T, Initial residual = 7.43781e-08, Final residual = 3.31265e-10, No Iterations 1
DILUPBiCG:  Solving for T, Initial residual = 6.89448e-10, Final residual = 6.89448e-10, No Iterations 0
 T goes from min(T) [0 0 0 0 0 0 0] 8.67665e-21 to max(T) [0 0 0 0 0 0 0] 0.95405

ExecutionTime = 39.17 s  ClockTime = 679 s

Time = 0.32
Courant Number mean: 0.370895 max: 0.726001
DILUPBiCG:  Solving for T, Initial residual = 0.00680597, Final residual = 4.61377e-10, No Iterations 3
DILUPBiCG:  Solving for T, Initial residual = 2.98209e-05, Final residual = 1.69511e-09, No Iterations 2
DILUPBiCG:  Solving for T, Initial residual = 7.56519e-08, Final residual = 3.33651e-10, No Iterations 1
DILUPBiCG:  Solving for T, Initial residual = 7.17889e-10, Final residual = 7.17889e-10, No Iterations 0
 T goes from min(T) [0 0 0 0 0 0 0] 8.30634e-21 to max(T) [0 0 0 0 0 0 0] 0.954172

ExecutionTime = 39.68 s  ClockTime = 688 s

Time = 0.325
Courant Number mean: 0.370777 max: 0.725683
DILUPBiCG:  Solving for T, Initial residual = 0.0068074, Final residual = 4.59973e-10, No Iterations 3
DILUPBiCG:  Solving for T, Initial residual = 2.99573e-05, Final residual = 1.63141e-09, No Iterations 2
DILUPBiCG:  Solving for T, Initial residual = 7.69263e-08, Final residual = 3.35945e-10, No Iterations 1
DILUPBiCG:  Solving for T, Initial residual = 7.32571e-10, Final residual = 7.32571e-10, No Iterations 0
 T goes from min(T) [0 0 0 0 0 0 0] 8.31654e-21 to max(T) [0 0 0 0 0 0 0] 0.953783

ExecutionTime = 40.21 s  ClockTime = 697 s

Time = 0.33
Courant Number mean: 0.370685 max: 0.72537
DILUPBiCG:  Solving for T, Initial residual = 0.00680853, Final residual = 4.58871e-10, No Iterations 3
DILUPBiCG:  Solving for T, Initial residual = 3.00926e-05, Final residual = 1.57617e-09, No Iterations 2
DILUPBiCG:  Solving for T, Initial residual = 7.81268e-08, Final residual = 3.38207e-10, No Iterations 1
DILUPBiCG:  Solving for T, Initial residual = 7.39098e-10, Final residual = 7.39098e-10, No Iterations 0
 T goes from min(T) [0 0 0 0 0 0 0] 8.70726e-21 to max(T) [0 0 0 0 0 0 0] 0.953709

ExecutionTime = 40.74 s  ClockTime = 706 s

Time = 0.335
Courant Number mean: 0.370572 max: 0.725038
DILUPBiCG:  Solving for T, Initial residual = 0.00681102, Final residual = 4.58072e-10, No Iterations 3
DILUPBiCG:  Solving for T, Initial residual = 3.02317e-05, Final residual = 1.52599e-09, No Iterations 2
DILUPBiCG:  Solving for T, Initial residual = 7.93923e-08, Final residual = 3.4066e-10, No Iterations 1
DILUPBiCG:  Solving for T, Initial residual = 7.6582e-10, Final residual = 7.6582e-10, No Iterations 0
 T goes from min(T) [0 0 0 0 0 0 0] 8.75734e-21 to max(T) [0 0 0 0 0 0 0] 0.954127

ExecutionTime = 41.24 s  ClockTime = 714 s

Time = 0.34
Courant Number mean: 0.370438 max: 0.724721
DILUPBiCG:  Solving for T, Initial residual = 0.00681321, Final residual = 4.57413e-10, No Iterations 3
DILUPBiCG:  Solving for T, Initial residual = 3.03732e-05, Final residual = 1.48059e-09, No Iterations 2
DILUPBiCG:  Solving for T, Initial residual = 8.07283e-08, Final residual = 3.43688e-10, No Iterations 1
DILUPBiCG:  Solving for T, Initial residual = 7.98781e-10, Final residual = 7.98781e-10, No Iterations 0
 T goes from min(T) [0 0 0 0 0 0 0] 8.33839e-21 to max(T) [0 0 0 0 0 0 0] 0.954042

ExecutionTime = 41.74 s  ClockTime = 723 s

Time = 0.345
Courant Number mean: 0.370303 max: 0.724375
DILUPBiCG:  Solving for T, Initial residual = 0.00681546, Final residual = 4.57289e-10, No Iterations 3
DILUPBiCG:  Solving for T, Initial residual = 3.05207e-05, Final residual = 1.43954e-09, No Iterations 2
DILUPBiCG:  Solving for T, Initial residual = 8.21222e-08, Final residual = 3.4684e-10, No Iterations 1
DILUPBiCG:  Solving for T, Initial residual = 8.20937e-10, Final residual = 8.20937e-10, No Iterations 0
 T goes from min(T) [0 0 0 0 0 0 0] 8.29815e-21 to max(T) [0 0 0 0 0 0 0] 0.953481

ExecutionTime = 42.26 s  ClockTime = 732 s

Time = 0.35
Courant Number mean: 0.370207 max: 0.724051
DILUPBiCG:  Solving for T, Initial residual = 0.00681675, Final residual = 4.57752e-10, No Iterations 3
DILUPBiCG:  Solving for T, Initial residual = 3.06717e-05, Final residual = 1.40375e-09, No Iterations 2
DILUPBiCG:  Solving for T, Initial residual = 8.34393e-08, Final residual = 3.49772e-10, No Iterations 1
DILUPBiCG:  Solving for T, Initial residual = 8.23482e-10, Final residual = 8.23482e-10, No Iterations 0
 T goes from min(T) [0 0 0 0 0 0 0] 8.63586e-21 to max(T) [0 0 0 0 0 0 0] 0.953574

ExecutionTime = 42.75 s  ClockTime = 740 s

Time = 0.355
Courant Number mean: 0.370091 max: 0.723691
DILUPBiCG:  Solving for T, Initial residual = 0.00682026, Final residual = 4.58649e-10, No Iterations 3
DILUPBiCG:  Solving for T, Initial residual = 3.08183e-05, Final residual = 1.37096e-09, No Iterations 2
DILUPBiCG:  Solving for T, Initial residual = 8.48087e-08, Final residual = 3.53128e-10, No Iterations 1
DILUPBiCG:  Solving for T, Initial residual = 8.49682e-10, Final residual = 8.49682e-10, No Iterations 0
 T goes from min(T) [0 0 0 0 0 0 0] 8.8471e-21 to max(T) [0 0 0 0 0 0 0] 0.953582

ExecutionTime = 43.26 s  ClockTime = 748 s

Time = 0.36
Courant Number mean: 0.369953 max: 0.723363
DILUPBiCG:  Solving for T, Initial residual = 0.00682354, Final residual = 4.60044e-10, No Iterations 3
DILUPBiCG:  Solving for T, Initial residual = 3.09663e-05, Final residual = 1.34023e-09, No Iterations 2
DILUPBiCG:  Solving for T, Initial residual = 8.62516e-08, Final residual = 3.5683e-10, No Iterations 1
DILUPBiCG:  Solving for T, Initial residual = 8.8708e-10, Final residual = 8.8708e-10, No Iterations 0
 T goes from min(T) [0 0 0 0 0 0 0] 8.3805e-21 to max(T) [0 0 0 0 0 0 0] 0.953898

ExecutionTime = 43.74 s  ClockTime = 756 s

Time = 0.365
Courant Number mean: 0.369802 max: 0.722989
DILUPBiCG:  Solving for T, Initial residual = 0.00682574, Final residual = 4.61922e-10, No Iterations 3
DILUPBiCG:  Solving for T, Initial residual = 3.112e-05, Final residual = 1.31173e-09, No Iterations 2
DILUPBiCG:  Solving for T, Initial residual = 8.77794e-08, Final residual = 3.61079e-10, No Iterations 1
DILUPBiCG:  Solving for T, Initial residual = 9.21641e-10, Final residual = 9.21641e-10, No Iterations 0
 T goes from min(T) [0 0 0 0 0 0 0] 8.29107e-21 to max(T) [0 0 0 0 0 0 0] 0.953189

ExecutionTime = 44.23 s  ClockTime = 763 s

Time = 0.37
Courant Number mean: 0.369702 max: 0.722655
DILUPBiCG:  Solving for T, Initial residual = 0.0068298, Final residual = 4.64777e-10, No Iterations 3
DILUPBiCG:  Solving for T, Initial residual = 3.12853e-05, Final residual = 1.28737e-09, No Iterations 2
DILUPBiCG:  Solving for T, Initial residual = 8.923e-08, Final residual = 3.65084e-10, No Iterations 1
DILUPBiCG:  Solving for T, Initial residual = 9.18777e-10, Final residual = 9.18777e-10, No Iterations 0
 T goes from min(T) [0 0 0 0 0 0 0] 8.57732e-21 to max(T) [0 0 0 0 0 0 0] 0.953748

ExecutionTime = 44.72 s  ClockTime = 771 s

Time = 0.375
Courant Number mean: 0.369582 max: 0.722266
DILUPBiCG:  Solving for T, Initial residual = 0.00683254, Final residual = 4.68439e-10, No Iterations 3
DILUPBiCG:  Solving for T, Initial residual = 3.1449e-05, Final residual = 1.26425e-09, No Iterations 2
DILUPBiCG:  Solving for T, Initial residual = 9.06943e-08, Final residual = 3.69351e-10, No Iterations 1
DILUPBiCG:  Solving for T, Initial residual = 9.44482e-10, Final residual = 9.44482e-10, No Iterations 0
 T goes from min(T) [0 0 0 0 0 0 0] 8.94557e-21 to max(T) [0 0 0 0 0 0 0] 0.954157

ExecutionTime = 45.2 s  ClockTime = 778 s

Time = 0.38
Courant Number mean: 0.369441 max: 0.721927
DILUPBiCG:  Solving for T, Initial residual = 0.00683659, Final residual = 4.7275e-10, No Iterations 3
DILUPBiCG:  Solving for T, Initial residual = 3.16097e-05, Final residual = 1.2423e-09, No Iterations 2
DILUPBiCG:  Solving for T, Initial residual = 9.22784e-08, Final residual = 3.74235e-10, No Iterations 1
DILUPBiCG:  Solving for T, Initial residual = 9.82883e-10, Final residual = 9.82883e-10, No Iterations 0
 T goes from min(T) [0 0 0 0 0 0 0] 8.43218e-21 to max(T) [0 0 0 0 0 0 0] 0.954098

ExecutionTime = 45.72 s  ClockTime = 786 s

Time = 0.385
Courant Number mean: 0.36928 max: 0.721534
DILUPBiCG:  Solving for T, Initial residual = 0.00684028, Final residual = 4.7775e-10, No Iterations 3
DILUPBiCG:  Solving for T, Initial residual = 3.17706e-05, Final residual = 1.22103e-09, No Iterations 2
DILUPBiCG:  Solving for T, Initial residual = 9.39525e-08, Final residual = 3.79525e-10, No Iterations 1
DILUPBiCG:  Solving for T, Initial residual = 1.02816e-09, Final residual = 1.02816e-09, No Iterations 0
 T goes from min(T) [0 0 0 0 0 0 0] 8.29472e-21 to max(T) [0 0 0 0 0 0 0] 0.953599

ExecutionTime = 46.26 s  ClockTime = 794 s

Time = 0.39
Courant Number mean: 0.36917 max: 0.72118
DILUPBiCG:  Solving for T, Initial residual = 0.00684602, Final residual = 4.8452e-10, No Iterations 3
DILUPBiCG:  Solving for T, Initial residual = 3.19388e-05, Final residual = 1.20212e-09, No Iterations 2
DILUPBiCG:  Solving for T, Initial residual = 9.55675e-08, Final residual = 3.84895e-10, No Iterations 1
DILUPBiCG:  Solving for T, Initial residual = 1.0264e-09, Final residual = 1.0264e-09, No Iterations 0
 T goes from min(T) [0 0 0 0 0 0 0] 8.53089e-21 to max(T) [0 0 0 0 0 0 0] 0.953488

ExecutionTime = 46.75 s  ClockTime = 802 s

Time = 0.395
Courant Number mean: 0.369046 max: 0.720781
DILUPBiCG:  Solving for T, Initial residual = 0.00685129, Final residual = 4.93566e-10, No Iterations 3
DILUPBiCG:  Solving for T, Initial residual = 3.21181e-05, Final residual = 1.18415e-09, No Iterations 2
DILUPBiCG:  Solving for T, Initial residual = 9.72178e-08, Final residual = 3.90629e-10, No Iterations 1
DILUPBiCG:  Solving for T, Initial residual = 1.05171e-09, Final residual = 1.05171e-09, No Iterations 0
 T goes from min(T) [0 0 0 0 0 0 0] 9.05242e-21 to max(T) [0 0 0 0 0 0 0] 0.953542

ExecutionTime = 47.28 s  ClockTime = 810 s

Time = 0.4
Courant Number mean: 0.368902 max: 0.720414
DILUPBiCG:  Solving for T, Initial residual = 0.00685539, Final residual = 5.03864e-10, No Iterations 3
DILUPBiCG:  Solving for T, Initial residual = 3.22907e-05, Final residual = 1.16597e-09, No Iterations 2
DILUPBiCG:  Solving for T, Initial residual = 9.89444e-08, Final residual = 3.96758e-10, No Iterations 1
DILUPBiCG:  Solving for T, Initial residual = 1.09258e-09, Final residual = 1.09258e-09, No Iterations 0
 T goes from min(T) [0 0 0 0 0 0 0] 8.49301e-21 to max(T) [0 0 0 0 0 0 0] 0.953867

ExecutionTime = 47.78 s  ClockTime = 817 s

Time = 0.405
Courant Number mean: 0.368738 max: 0.72001
DILUPBiCG:  Solving for T, Initial residual = 0.00686104, Final residual = 5.15751e-10, No Iterations 3
DILUPBiCG:  Solving for T, Initial residual = 3.24658e-05, Final residual = 1.14742e-09, No Iterations 2
DILUPBiCG:  Solving for T, Initial residual = 1.00768e-07, Final residual = 4.03705e-10, No Iterations 1
DILUPBiCG:  Solving for T, Initial residual = 1.14232e-09, Final residual = 1.14232e-09, No Iterations 0
 T goes from min(T) [0 0 0 0 0 0 0] 8.30853e-21 to max(T) [0 0 0 0 0 0 0] 0.953288

ExecutionTime = 48.29 s  ClockTime = 825 s

Time = 0.41
Courant Number mean: 0.368612 max: 0.719629
DILUPBiCG:  Solving for T, Initial residual = 0.00686791, Final residual = 5.30602e-10, No Iterations 3
DILUPBiCG:  Solving for T, Initial residual = 3.26381e-05, Final residual = 1.12975e-09, No Iterations 2
DILUPBiCG:  Solving for T, Initial residual = 1.02529e-07, Final residual = 4.10371e-10, No Iterations 1
DILUPBiCG:  Solving for T, Initial residual = 1.15063e-09, Final residual = 1.15063e-09, No Iterations 0
 T goes from min(T) [0 0 0 0 0 0 0] 8.4959e-21 to max(T) [0 0 0 0 0 0 0] 0.953407

ExecutionTime = 48.8 s  ClockTime = 832 s

Time = 0.415
Courant Number mean: 0.368484 max: 0.719218
DILUPBiCG:  Solving for T, Initial residual = 0.00687507, Final residual = 5.47919e-10, No Iterations 3
DILUPBiCG:  Solving for T, Initial residual = 3.28165e-05, Final residual = 1.11148e-09, No Iterations 2
DILUPBiCG:  Solving for T, Initial residual = 1.04386e-07, Final residual = 4.17945e-10, No Iterations 1
DILUPBiCG:  Solving for T, Initial residual = 1.17373e-09, Final residual = 1.17373e-09, No Iterations 0
 T goes from min(T) [0 0 0 0 0 0 0] 9.05858e-21 to max(T) [0 0 0 0 0 0 0] 0.953961

ExecutionTime = 49.3 s  ClockTime = 840 s

Time = 0.42
Courant Number mean: 0.368337 max: 0.718824
DILUPBiCG:  Solving for T, Initial residual = 0.00688142, Final residual = 5.67223e-10, No Iterations 3
DILUPBiCG:  Solving for T, Initial residual = 3.30068e-05, Final residual = 1.09253e-09, No Iterations 2
DILUPBiCG:  Solving for T, Initial residual = 1.06342e-07, Final residual = 4.25828e-10, No Iterations 1
DILUPBiCG:  Solving for T, Initial residual = 1.21718e-09, Final residual = 1.21718e-09, No Iterations 0
 T goes from min(T) [0 0 0 0 0 0 0] 8.56257e-21 to max(T) [0 0 0 0 0 0 0] 0.954072

ExecutionTime = 49.84 s  ClockTime = 848 s

Time = 0.425
Courant Number mean: 0.36817 max: 0.718409
DILUPBiCG:  Solving for T, Initial residual = 0.00688879, Final residual = 5.88997e-10, No Iterations 3
DILUPBiCG:  Solving for T, Initial residual = 3.31939e-05, Final residual = 1.07218e-09, No Iterations 2
DILUPBiCG:  Solving for T, Initial residual = 1.08373e-07, Final residual = 4.34466e-10, No Iterations 1
DILUPBiCG:  Solving for T, Initial residual = 1.27071e-09, Final residual = 1.27071e-09, No Iterations 0
 T goes from min(T) [0 0 0 0 0 0 0] 8.33199e-21 to max(T) [0 0 0 0 0 0 0] 0.953767

ExecutionTime = 50.36 s  ClockTime = 856 s

Time = 0.43
Courant Number mean: 0.368027 max: 0.718
DILUPBiCG:  Solving for T, Initial residual = 0.00689684, Final residual = 6.14963e-10, No Iterations 3
DILUPBiCG:  Solving for T, Initial residual = 3.33873e-05, Final residual = 1.05115e-09, No Iterations 2
DILUPBiCG:  Solving for T, Initial residual = 1.10423e-07, Final residual = 4.43358e-10, No Iterations 1
DILUPBiCG:  Solving for T, Initial residual = 1.29216e-09, Final residual = 1.29216e-09, No Iterations 0
 T goes from min(T) [0 0 0 0 0 0 0] 8.4717e-21 to max(T) [0 0 0 0 0 0 0] 0.95307

ExecutionTime = 50.86 s  ClockTime = 863 s

Time = 0.435
Courant Number mean: 0.367896 max: 0.717579
DILUPBiCG:  Solving for T, Initial residual = 0.00690502, Final residual = 6.4472e-10, No Iterations 3
DILUPBiCG:  Solving for T, Initial residual = 3.35843e-05, Final residual = 1.02888e-09, No Iterations 2
DILUPBiCG:  Solving for T, Initial residual = 1.12429e-07, Final residual = 4.52538e-10, No Iterations 1
DILUPBiCG:  Solving for T, Initial residual = 1.31457e-09, Final residual = 1.31457e-09, No Iterations 0
 T goes from min(T) [0 0 0 0 0 0 0] 8.9844e-21 to max(T) [0 0 0 0 0 0 0] 0.953632

ExecutionTime = 51.38 s  ClockTime = 871 s

Time = 0.44
Courant Number mean: 0.367746 max: 0.717156
DILUPBiCG:  Solving for T, Initial residual = 0.00691377, Final residual = 6.77649e-10, No Iterations 3
DILUPBiCG:  Solving for T, Initial residual = 3.37758e-05, Final residual = 1.00443e-09, No Iterations 2
DILUPBiCG:  Solving for T, Initial residual = 1.1453e-07, Final residual = 4.62418e-10, No Iterations 1
DILUPBiCG:  Solving for T, Initial residual = 1.36175e-09, Final residual = 1.36175e-09, No Iterations 0
 T goes from min(T) [0 0 0 0 0 0 0] 8.64048e-21 to max(T) [0 0 0 0 0 0 0] 0.953907

ExecutionTime = 51.92 s  ClockTime = 879 s

Time = 0.445
Courant Number mean: 0.367576 max: 0.716731
DILUPBiCG:  Solving for T, Initial residual = 0.00692263, Final residual = 7.14758e-10, No Iterations 3
DILUPBiCG:  Solving for T, Initial residual = 3.39733e-05, Final residual = 9.77599e-10, No Iterations 2
DILUPBiCG:  Solving for T, Initial residual = 1.16754e-07, Final residual = 4.73209e-10, No Iterations 1
DILUPBiCG:  Solving for T, Initial residual = 1.41955e-09, Final residual = 1.41955e-09, No Iterations 0
 T goes from min(T) [0 0 0 0 0 0 0] 8.36462e-21 to max(T) [0 0 0 0 0 0 0] 0.953811

ExecutionTime = 52.42 s  ClockTime = 887 s

Time = 0.45
Courant Number mean: 0.367417 max: 0.716294
DILUPBiCG:  Solving for T, Initial residual = 0.00693328, Final residual = 7.57125e-10, No Iterations 3
DILUPBiCG:  Solving for T, Initial residual = 3.41727e-05, Final residual = 9.49466e-10, No Iterations 2
DILUPBiCG:  Solving for T, Initial residual = 1.19065e-07, Final residual = 4.8436e-10, No Iterations 1
DILUPBiCG:  Solving for T, Initial residual = 1.45475e-09, Final residual = 1.45475e-09, No Iterations 0
 T goes from min(T) [0 0 0 0 0 0 0] 8.4577e-21 to max(T) [0 0 0 0 0 0 0] 0.95332

ExecutionTime = 52.94 s  ClockTime = 895 s

Time = 0.455
Courant Number mean: 0.367282 max: 0.715863
DILUPBiCG:  Solving for T, Initial residual = 0.0069434, Final residual = 8.04327e-10, No Iterations 3
DILUPBiCG:  Solving for T, Initial residual = 3.43797e-05, Final residual = 9.18913e-10, No Iterations 2
DILUPBiCG:  Solving for T, Initial residual = 1.21397e-07, Final residual = 4.96121e-10, No Iterations 1
DILUPBiCG:  Solving for T, Initial residual = 1.47479e-09, Final residual = 1.47479e-09, No Iterations 0
 T goes from min(T) [0 0 0 0 0 0 0] 8.92168e-21 to max(T) [0 0 0 0 0 0 0] 0.953193

ExecutionTime = 53.44 s  ClockTime = 902 s

Time = 0.46
Courant Number mean: 0.367128 max: 0.715412
DILUPBiCG:  Solving for T, Initial residual = 0.00695202, Final residual = 8.56222e-10, No Iterations 3
DILUPBiCG:  Solving for T, Initial residual = 3.45899e-05, Final residual = 8.86084e-10, No Iterations 2
DILUPBiCG:  Solving for T, Initial residual = 1.23791e-07, Final residual = 5.08447e-10, No Iterations 1
DILUPBiCG:  Solving for T, Initial residual = 1.52649e-09, Final residual = 1.52649e-09, No Iterations 0
 T goes from min(T) [0 0 0 0 0 0 0] 8.72639e-21 to max(T) [0 0 0 0 0 0 0] 0.953363

ExecutionTime = 53.95 s  ClockTime = 910 s

Time = 0.465
Courant Number mean: 0.366954 max: 0.714976
DILUPBiCG:  Solving for T, Initial residual = 0.00696226, Final residual = 9.13613e-10, No Iterations 3
DILUPBiCG:  Solving for T, Initial residual = 3.4795e-05, Final residual = 8.50717e-10, No Iterations 2
DILUPBiCG:  Solving for T, Initial residual = 1.26289e-07, Final residual = 5.21826e-10, No Iterations 1
DILUPBiCG:  Solving for T, Initial residual = 1.59167e-09, Final residual = 1.59167e-09, No Iterations 0
 T goes from min(T) [0 0 0 0 0 0 0] 8.40597e-21 to max(T) [0 0 0 0 0 0 0] 0.953895

ExecutionTime = 54.46 s  ClockTime = 917 s

Time = 0.47
Courant Number mean: 0.36678 max: 0.714512
DILUPBiCG:  Solving for T, Initial residual = 0.00697361, Final residual = 9.75397e-10, No Iterations 3
DILUPBiCG:  Solving for T, Initial residual = 3.501e-05, Final residual = 8.13237e-10, No Iterations 2
DILUPBiCG:  Solving for T, Initial residual = 1.28758e-07, Final residual = 5.35469e-10, No Iterations 1
DILUPBiCG:  Solving for T, Initial residual = 1.64444e-09, Final residual = 1.64444e-09, No Iterations 0
 T goes from min(T) [0 0 0 0 0 0 0] 8.45336e-21 to max(T) [0 0 0 0 0 0 0] 0.953254

ExecutionTime = 54.97 s  ClockTime = 925 s

Time = 0.475
Courant Number mean: 0.366642 max: 0.71407
DILUPBiCG:  Solving for T, Initial residual = 0.00698603, Final residual = 1.04214e-09, No Iterations 3
DILUPBiCG:  Solving for T, Initial residual = 3.52153e-05, Final residual = 7.73502e-10, No Iterations 2
DILUPBiCG:  Solving for T, Initial residual = 1.31362e-07, Final residual = 5.49594e-10, No Iterations 1
DILUPBiCG:  Solving for T, Initial residual = 1.66317e-09, Final residual = 1.66317e-09, No Iterations 0
 T goes from min(T) [0 0 0 0 0 0 0] 8.86975e-21 to max(T) [0 0 0 0 0 0 0] 0.953008

ExecutionTime = 55.5 s  ClockTime = 933 s

Time = 0.48
Courant Number mean: 0.366484 max: 0.713591
DILUPBiCG:  Solving for T, Initial residual = 0.00699722, Final residual = 1.11399e-09, No Iterations 3
DILUPBiCG:  Solving for T, Initial residual = 3.54375e-05, Final residual = 7.3225e-10, No Iterations 2
DILUPBiCG:  Solving for T, Initial residual = 1.33983e-07, Final residual = 5.64965e-10, No Iterations 1
DILUPBiCG:  Solving for T, Initial residual = 1.72066e-09, Final residual = 1.72066e-09, No Iterations 0
 T goes from min(T) [0 0 0 0 0 0 0] 8.81998e-21 to max(T) [0 0 0 0 0 0 0] 0.952948

ExecutionTime = 56.03 s  ClockTime = 941 s

Time = 0.485
Courant Number mean: 0.366307 max: 0.713145
DILUPBiCG:  Solving for T, Initial residual = 0.00700794, Final residual = 1.18999e-09, No Iterations 3
DILUPBiCG:  Solving for T, Initial residual = 3.56631e-05, Final residual = 6.89099e-10, No Iterations 2
DILUPBiCG:  Solving for T, Initial residual = 1.3674e-07, Final residual = 5.80895e-10, No Iterations 1
DILUPBiCG:  Solving for T, Initial residual = 1.79128e-09, Final residual = 1.79128e-09, No Iterations 0
 T goes from min(T) [0 0 0 0 0 0 0] 8.45563e-21 to max(T) [0 0 0 0 0 0 0] 0.953759

ExecutionTime = 56.53 s  ClockTime = 948 s

Time = 0.49
Courant Number mean: 0.366117 max: 0.712653
DILUPBiCG:  Solving for T, Initial residual = 0.00701987, Final residual = 1.27076e-09, No Iterations 3
DILUPBiCG:  Solving for T, Initial residual = 3.58913e-05, Final residual = 6.44706e-10, No Iterations 2
DILUPBiCG:  Solving for T, Initial residual = 1.39558e-07, Final residual = 5.97926e-10, No Iterations 1
DILUPBiCG:  Solving for T, Initial residual = 1.86541e-09, Final residual = 1.86541e-09, No Iterations 0
 T goes from min(T) [0 0 0 0 0 0 0] 8.45817e-21 to max(T) [0 0 0 0 0 0 0] 0.953423

ExecutionTime = 57.03 s  ClockTime = 956 s

Time = 0.495
Courant Number mean: 0.365975 max: 0.712201
DILUPBiCG:  Solving for T, Initial residual = 0.00703171, Final residual = 1.35327e-09, No Iterations 3
DILUPBiCG:  Solving for T, Initial residual = 3.6124e-05, Final residual = 5.99356e-10, No Iterations 2
DILUPBiCG:  Solving for T, Initial residual = 1.42479e-07, Final residual = 6.15161e-10, No Iterations 1
DILUPBiCG:  Solving for T, Initial residual = 1.88027e-09, Final residual = 1.88027e-09, No Iterations 0
 T goes from min(T) [0 0 0 0 0 0 0] 8.82801e-21 to max(T) [0 0 0 0 0 0 0] 0.9535

ExecutionTime = 57.54 s  ClockTime = 964 s

Time = 0.5
Courant Number mean: 0.365815 max: 0.711695
DILUPBiCG:  Solving for T, Initial residual = 0.00704567, Final residual = 1.43795e-09, No Iterations 3
DILUPBiCG:  Solving for T, Initial residual = 3.63526e-05, Final residual = 5.53581e-10, No Iterations 2
DILUPBiCG:  Solving for T, Initial residual = 1.45397e-07, Final residual = 6.33905e-10, No Iterations 1
DILUPBiCG:  Solving for T, Initial residual = 1.94095e-09, Final residual = 1.94095e-09, No Iterations 0
 T goes from min(T) [0 0 0 0 0 0 0] 8.92094e-21 to max(T) [0 0 0 0 0 0 0] 0.952436

ExecutionTime = 58.03 s  ClockTime = 971 s

Time = 0.505
Courant Number mean: 0.365634 max: 0.711238
DILUPBiCG:  Solving for T, Initial residual = 0.00705817, Final residual = 1.52413e-09, No Iterations 3
DILUPBiCG:  Solving for T, Initial residual = 3.65794e-05, Final residual = 5.08044e-10, No Iterations 2
DILUPBiCG:  Solving for T, Initial residual = 1.48526e-07, Final residual = 6.53199e-10, No Iterations 1
DILUPBiCG:  Solving for T, Initial residual = 2.02383e-09, Final residual = 2.02383e-09, No Iterations 0
 T goes from min(T) [0 0 0 0 0 0 0] 8.51322e-21 to max(T) [0 0 0 0 0 0 0] 0.953218

ExecutionTime = 58.52 s  ClockTime = 978 s

Time = 0.51
Courant Number mean: 0.365433 max: 0.710727
DILUPBiCG:  Solving for T, Initial residual = 0.00707111, Final residual = 1.60934e-09, No Iterations 3
DILUPBiCG:  Solving for T, Initial residual = 3.68099e-05, Final residual = 4.93756e-10, No Iterations 2
DILUPBiCG:  Solving for T, Initial residual = 1.51686e-07, Final residual = 6.73662e-10, No Iterations 1
DILUPBiCG:  Solving for T, Initial residual = 2.11462e-09, Final residual = 2.11462e-09, No Iterations 0
 T goes from min(T) [0 0 0 0 0 0 0] 8.47167e-21 to max(T) [0 0 0 0 0 0 0] 0.953313

ExecutionTime = 59.04 s  ClockTime = 986 s

Time = 0.515
Courant Number mean: 0.365283 max: 0.710256
DILUPBiCG:  Solving for T, Initial residual = 0.0070853, Final residual = 1.69043e-09, No Iterations 3
DILUPBiCG:  Solving for T, Initial residual = 3.70455e-05, Final residual = 5.13593e-10, No Iterations 2
DILUPBiCG:  Solving for T, Initial residual = 1.5487e-07, Final residual = 6.95012e-10, No Iterations 1
DILUPBiCG:  Solving for T, Initial residual = 2.13835e-09, Final residual = 2.13835e-09, No Iterations 0
 T goes from min(T) [0 0 0 0 0 0 0] 8.79591e-21 to max(T) [0 0 0 0 0 0 0] 0.953743

ExecutionTime = 59.55 s  ClockTime = 994 s

Time = 0.52
Courant Number mean: 0.36512 max: 0.70974
DILUPBiCG:  Solving for T, Initial residual = 0.0070985, Final residual = 1.76579e-09, No Iterations 3
DILUPBiCG:  Solving for T, Initial residual = 3.72992e-05, Final residual = 5.35826e-10, No Iterations 2
DILUPBiCG:  Solving for T, Initial residual = 1.58137e-07, Final residual = 7.16928e-10, No Iterations 1
DILUPBiCG:  Solving for T, Initial residual = 2.2021e-09, Final residual = 2.2021e-09, No Iterations 0
 T goes from min(T) [0 0 0 0 0 0 0] 9.02901e-21 to max(T) [0 0 0 0 0 0 0] 0.953094

ExecutionTime = 60.06 s  ClockTime = 1001 s

Time = 0.525
Courant Number mean: 0.364936 max: 0.709255
DILUPBiCG:  Solving for T, Initial residual = 0.00711237, Final residual = 1.83463e-09, No Iterations 3
DILUPBiCG:  Solving for T, Initial residual = 3.7547e-05, Final residual = 5.60951e-10, No Iterations 2
DILUPBiCG:  Solving for T, Initial residual = 1.61513e-07, Final residual = 7.40424e-10, No Iterations 1
DILUPBiCG:  Solving for T, Initial residual = 2.2896e-09, Final residual = 2.2896e-09, No Iterations 0
 T goes from min(T) [0 0 0 0 0 0 0] 8.5784e-21 to max(T) [0 0 0 0 0 0 0] 0.952795

ExecutionTime = 60.57 s  ClockTime = 1009 s

Time = 0.53
Courant Number mean: 0.364732 max: 0.708734
DILUPBiCG:  Solving for T, Initial residual = 0.00712614, Final residual = 1.89371e-09, No Iterations 3
DILUPBiCG:  Solving for T, Initial residual = 3.78028e-05, Final residual = 5.8902e-10, No Iterations 2
DILUPBiCG:  Solving for T, Initial residual = 1.65064e-07, Final residual = 7.64996e-10, No Iterations 1
DILUPBiCG:  Solving for T, Initial residual = 2.39599e-09, Final residual = 2.39599e-09, No Iterations 0
 T goes from min(T) [0 0 0 0 0 0 0] 8.49343e-21 to max(T) [0 0 0 0 0 0 0] 0.952872

ExecutionTime = 61.08 s  ClockTime = 1016 s

Time = 0.535
Courant Number mean: 0.364566 max: 0.708236
DILUPBiCG:  Solving for T, Initial residual = 0.00713966, Final residual = 1.93749e-09, No Iterations 3
DILUPBiCG:  Solving for T, Initial residual = 3.80555e-05, Final residual = 6.20699e-10, No Iterations 2
DILUPBiCG:  Solving for T, Initial residual = 1.68464e-07, Final residual = 7.90614e-10, No Iterations 1
DILUPBiCG:  Solving for T, Initial residual = 2.44019e-09, Final residual = 2.44019e-09, No Iterations 0
 T goes from min(T) [0 0 0 0 0 0 0] 8.77292e-21 to max(T) [0 0 0 0 0 0 0] 0.953279

ExecutionTime = 61.6 s  ClockTime = 1024 s

Time = 0.54
Courant Number mean: 0.3644 max: 0.707709
DILUPBiCG:  Solving for T, Initial residual = 0.00715523, Final residual = 1.96728e-09, No Iterations 3
DILUPBiCG:  Solving for T, Initial residual = 3.83082e-05, Final residual = 6.55223e-10, No Iterations 2
DILUPBiCG:  Solving for T, Initial residual = 1.72156e-07, Final residual = 8.16395e-10, No Iterations 1
DILUPBiCG:  Solving for T, Initial residual = 2.50498e-09, Final residual = 2.50498e-09, No Iterations 0
 T goes from min(T) [0 0 0 0 0 0 0] 9.14393e-21 to max(T) [0 0 0 0 0 0 0] 0.95363

ExecutionTime = 62.11 s  ClockTime = 1031 s

Time = 0.545
Courant Number mean: 0.364213 max: 0.707197
DILUPBiCG:  Solving for T, Initial residual = 0.00716995, Final residual = 1.98013e-09, No Iterations 3
DILUPBiCG:  Solving for T, Initial residual = 3.85607e-05, Final residual = 6.93349e-10, No Iterations 2
DILUPBiCG:  Solving for T, Initial residual = 1.75878e-07, Final residual = 8.4483e-10, No Iterations 1
DILUPBiCG:  Solving for T, Initial residual = 2.60584e-09, Final residual = 2.60584e-09, No Iterations 0
 T goes from min(T) [0 0 0 0 0 0 0] 8.65084e-21 to max(T) [0 0 0 0 0 0 0] 0.953264

ExecutionTime = 62.63 s  ClockTime = 1038 s

Time = 0.55
Courant Number mean: 0.364005 max: 0.706666
DILUPBiCG:  Solving for T, Initial residual = 0.0071859, Final residual = 1.9761e-09, No Iterations 3
DILUPBiCG:  Solving for T, Initial residual = 3.88262e-05, Final residual = 7.31934e-10, No Iterations 2
DILUPBiCG:  Solving for T, Initial residual = 1.79908e-07, Final residual = 8.74522e-10, No Iterations 1
DILUPBiCG:  Solving for T, Initial residual = 2.7198e-09, Final residual = 2.7198e-09, No Iterations 0
 T goes from min(T) [0 0 0 0 0 0 0] 8.52306e-21 to max(T) [0 0 0 0 0 0 0] 0.9529

ExecutionTime = 63.14 s  ClockTime = 1045 s

Time = 0.555
Courant Number mean: 0.363823 max: 0.70614
DILUPBiCG:  Solving for T, Initial residual = 0.00720124, Final residual = 1.95308e-09, No Iterations 3
DILUPBiCG:  Solving for T, Initial residual = 3.90907e-05, Final residual = 7.7225e-10, No Iterations 2
DILUPBiCG:  Solving for T, Initial residual = 1.8379e-07, Final residual = 9.05343e-10, No Iterations 1
DILUPBiCG:  Solving for T, Initial residual = 2.79327e-09, Final residual = 2.79327e-09, No Iterations 0
 T goes from min(T) [0 0 0 0 0 0 0] 8.75857e-21 to max(T) [0 0 0 0 0 0 0] 0.952202

ExecutionTime = 63.64 s  ClockTime = 1052 s

Time = 0.56
Courant Number mean: 0.363654 max: 0.705603
DILUPBiCG:  Solving for T, Initial residual = 0.00721458, Final residual = 1.91252e-09, No Iterations 3
DILUPBiCG:  Solving for T, Initial residual = 3.93641e-05, Final residual = 8.13579e-10, No Iterations 2
DILUPBiCG:  Solving for T, Initial residual = 1.87868e-07, Final residual = 9.36762e-10, No Iterations 1
DILUPBiCG:  Solving for T, Initial residual = 2.86076e-09, Final residual = 2.86076e-09, No Iterations 0
 T goes from min(T) [0 0 0 0 0 0 0] 9.26548e-21 to max(T) [0 0 0 0 0 0 0] 0.952995

ExecutionTime = 64.17 s  ClockTime = 1060 s

Time = 0.565
Courant Number mean: 0.363464 max: 0.705063
DILUPBiCG:  Solving for T, Initial residual = 0.00722974, Final residual = 1.85559e-09, No Iterations 3
DILUPBiCG:  Solving for T, Initial residual = 3.96354e-05, Final residual = 8.55657e-10, No Iterations 2
DILUPBiCG:  Solving for T, Initial residual = 1.91989e-07, Final residual = 9.70634e-10, No Iterations 1
DILUPBiCG:  Solving for T, Initial residual = 2.97301e-09, Final residual = 2.97301e-09, No Iterations 0
 T goes from min(T) [0 0 0 0 0 0 0] 8.73025e-21 to max(T) [0 0 0 0 0 0 0] 0.953416

ExecutionTime = 64.7 s  ClockTime = 1067 s

Time = 0.57
Courant Number mean: 0.363254 max: 0.704522
DILUPBiCG:  Solving for T, Initial residual = 0.00724581, Final residual = 1.78636e-09, No Iterations 3
DILUPBiCG:  Solving for T, Initial residual = 3.99097e-05, Final residual = 8.97237e-10, No Iterations 2
DILUPBiCG:  Solving for T, Initial residual = 1.96394e-07, Final residual = 1.00598e-09, No Iterations 1
DILUPBiCG:  Solving for T, Initial residual = 3.10036e-09, Final residual = 3.10036e-09, No Iterations 0
 T goes from min(T) [0 0 0 0 0 0 0] 8.56018e-21 to max(T) [0 0 0 0 0 0 0] 0.953416

ExecutionTime = 65.26 s  ClockTime = 1075 s

Time = 0.575
Courant Number mean: 0.363057 max: 0.703969
DILUPBiCG:  Solving for T, Initial residual = 0.00726315, Final residual = 1.70777e-09, No Iterations 3
DILUPBiCG:  Solving for T, Initial residual = 4.01942e-05, Final residual = 9.39246e-10, No Iterations 2
DILUPBiCG:  Solving for T, Initial residual = 2.00728e-07, Final residual = 1.04204e-09, No Iterations 1
DILUPBiCG:  Solving for T, Initial residual = 3.20105e-09, Final residual = 3.20105e-09, No Iterations 0
 T goes from min(T) [0 0 0 0 0 0 0] 8.75242e-21 to max(T) [0 0 0 0 0 0 0] 0.953098

ExecutionTime = 65.78 s  ClockTime = 1082 s

Time = 0.58
Courant Number mean: 0.362883 max: 0.703422
DILUPBiCG:  Solving for T, Initial residual = 0.00728083, Final residual = 1.67334e-09, No Iterations 3
DILUPBiCG:  Solving for T, Initial residual = 4.04737e-05, Final residual = 9.82528e-10, No Iterations 2
DILUPBiCG:  Solving for T, Initial residual = 2.05148e-07, Final residual = 1.08007e-09, No Iterations 1
DILUPBiCG:  Solving for T, Initial residual = 3.27794e-09, Final residual = 3.27794e-09, No Iterations 0
 T goes from min(T) [0 0 0 0 0 0 0] 9.31097e-21 to max(T) [0 0 0 0 0 0 0] 0.952435

ExecutionTime = 66.32 s  ClockTime = 1090 s

Time = 0.585
Courant Number mean: 0.36269 max: 0.702855
DILUPBiCG:  Solving for T, Initial residual = 0.00729644, Final residual = 1.67187e-09, No Iterations 3
DILUPBiCG:  Solving for T, Initial residual = 4.07556e-05, Final residual = 1.02483e-09, No Iterations 2
DILUPBiCG:  Solving for T, Initial residual = 2.09805e-07, Final residual = 1.11946e-09, No Iterations 1
DILUPBiCG:  Solving for T, Initial residual = 3.40074e-09, Final residual = 3.40074e-09, No Iterations 0
 T goes from min(T) [0 0 0 0 0 0 0] 8.81638e-21 to max(T) [0 0 0 0 0 0 0] 0.951809

ExecutionTime = 66.82 s  ClockTime = 1097 s

Time = 0.59
Courant Number mean: 0.362479 max: 0.702303
DILUPBiCG:  Solving for T, Initial residual = 0.00731318, Final residual = 1.67945e-09, No Iterations 3
DILUPBiCG:  Solving for T, Initial residual = 4.10461e-05, Final residual = 1.0674e-09, No Iterations 2
DILUPBiCG:  Solving for T, Initial residual = 2.14604e-07, Final residual = 1.1609e-09, No Iterations 1
DILUPBiCG:  Solving for T, Initial residual = 3.54195e-09, Final residual = 3.54195e-09, No Iterations 0
 T goes from min(T) [0 0 0 0 0 0 0] 8.60448e-21 to max(T) [0 0 0 0 0 0 0] 0.952935

ExecutionTime = 67.33 s  ClockTime = 1103 s

Time = 0.595
Courant Number mean: 0.362267 max: 0.701724
DILUPBiCG:  Solving for T, Initial residual = 0.00732888, Final residual = 1.69608e-09, No Iterations 3
DILUPBiCG:  Solving for T, Initial residual = 4.13394e-05, Final residual = 1.11038e-09, No Iterations 2
DILUPBiCG:  Solving for T, Initial residual = 2.1957e-07, Final residual = 1.2047e-09, No Iterations 1
DILUPBiCG:  Solving for T, Initial residual = 3.67342e-09, Final residual = 3.67342e-09, No Iterations 0
 T goes from min(T) [0 0 0 0 0 0 0] 8.75407e-21 to max(T) [0 0 0 0 0 0 0] 0.953016

ExecutionTime = 67.83 s  ClockTime = 1110 s

Time = 0.6
Courant Number mean: 0.362089 max: 0.701166
DILUPBiCG:  Solving for T, Initial residual = 0.00734514, Final residual = 1.71865e-09, No Iterations 3
DILUPBiCG:  Solving for T, Initial residual = 4.16402e-05, Final residual = 1.15527e-09, No Iterations 2
DILUPBiCG:  Solving for T, Initial residual = 2.24569e-07, Final residual = 1.24799e-09, No Iterations 1
DILUPBiCG:  Solving for T, Initial residual = 3.76034e-09, Final residual = 3.76034e-09, No Iterations 0
 T goes from min(T) [0 0 0 0 0 0 0] 9.26837e-21 to max(T) [0 0 0 0 0 0 0] 0.953333

ExecutionTime = 68.33 s  ClockTime = 1117 s

Time = 0.605
Courant Number mean: 0.361892 max: 0.700572
DILUPBiCG:  Solving for T, Initial residual = 0.00736374, Final residual = 1.75363e-09, No Iterations 3
DILUPBiCG:  Solving for T, Initial residual = 4.19443e-05, Final residual = 1.19952e-09, No Iterations 2
DILUPBiCG:  Solving for T, Initial residual = 2.29661e-07, Final residual = 1.29396e-09, No Iterations 1
DILUPBiCG:  Solving for T, Initial residual = 3.89035e-09, Final residual = 3.89035e-09, No Iterations 0
 T goes from min(T) [0 0 0 0 0 0 0] 8.90898e-21 to max(T) [0 0 0 0 0 0 0] 0.95276

ExecutionTime = 68.84 s  ClockTime = 1123 s

Time = 0.61
Courant Number mean: 0.361679 max: 0.70001
DILUPBiCG:  Solving for T, Initial residual = 0.0073817, Final residual = 1.80302e-09, No Iterations 3
DILUPBiCG:  Solving for T, Initial residual = 4.22458e-05, Final residual = 1.24463e-09, No Iterations 2
DILUPBiCG:  Solving for T, Initial residual = 2.34954e-07, Final residual = 1.34102e-09, No Iterations 1
DILUPBiCG:  Solving for T, Initial residual = 4.04964e-09, Final residual = 4.04964e-09, No Iterations 0
 T goes from min(T) [0 0 0 0 0 0 0] 8.65565e-21 to max(T) [0 0 0 0 0 0 0] 0.952321

ExecutionTime = 69.36 s  ClockTime = 1130 s

Time = 0.615
Courant Number mean: 0.361452 max: 0.699404
DILUPBiCG:  Solving for T, Initial residual = 0.00740042, Final residual = 1.86419e-09, No Iterations 3
DILUPBiCG:  Solving for T, Initial residual = 4.256e-05, Final residual = 1.29105e-09, No Iterations 2
DILUPBiCG:  Solving for T, Initial residual = 2.40379e-07, Final residual = 1.3897e-09, No Iterations 1
DILUPBiCG:  Solving for T, Initial residual = 4.21633e-09, Final residual = 4.21633e-09, No Iterations 0
 T goes from min(T) [0 0 0 0 0 0 0] 8.76315e-21 to max(T) [0 0 0 0 0 0 0] 0.951289

ExecutionTime = 69.86 s  ClockTime = 1136 s

Time = 0.62
Courant Number mean: 0.361272 max: 0.698836
DILUPBiCG:  Solving for T, Initial residual = 0.00741828, Final residual = 1.93205e-09, No Iterations 3
DILUPBiCG:  Solving for T, Initial residual = 4.28611e-05, Final residual = 1.33894e-09, No Iterations 2
DILUPBiCG:  Solving for T, Initial residual = 2.45718e-07, Final residual = 1.43709e-09, No Iterations 1
DILUPBiCG:  Solving for T, Initial residual = 4.30865e-09, Final residual = 4.30865e-09, No Iterations 0
 T goes from min(T) [0 0 0 0 0 0 0] 9.23392e-21 to max(T) [0 0 0 0 0 0 0] 0.952448

ExecutionTime = 70.38 s  ClockTime = 1143 s

Time = 0.625
Courant Number mean: 0.361073 max: 0.698216
DILUPBiCG:  Solving for T, Initial residual = 0.00743545, Final residual = 2.00652e-09, No Iterations 3
DILUPBiCG:  Solving for T, Initial residual = 4.31755e-05, Final residual = 1.38736e-09, No Iterations 2
DILUPBiCG:  Solving for T, Initial residual = 2.51418e-07, Final residual = 1.48701e-09, No Iterations 1
DILUPBiCG:  Solving for T, Initial residual = 4.45143e-09, Final residual = 4.45143e-09, No Iterations 0
 T goes from min(T) [0 0 0 0 0 0 0] 9.00783e-21 to max(T) [0 0 0 0 0 0 0] 0.952829

ExecutionTime = 70.88 s  ClockTime = 1150 s

Time = 0.63
Courant Number mean: 0.360856 max: 0.697644
DILUPBiCG:  Solving for T, Initial residual = 0.00745363, Final residual = 2.09174e-09, No Iterations 3
DILUPBiCG:  Solving for T, Initial residual = 4.34801e-05, Final residual = 1.43676e-09, No Iterations 2
DILUPBiCG:  Solving for T, Initial residual = 2.57166e-07, Final residual = 1.53641e-09, No Iterations 1
DILUPBiCG:  Solving for T, Initial residual = 4.618e-09, Final residual = 4.618e-09, No Iterations 0
 T goes from min(T) [0 0 0 0 0 0 0] 8.71341e-21 to max(T) [0 0 0 0 0 0 0] 0.953126

ExecutionTime = 71.38 s  ClockTime = 1156 s

Time = 0.635
Courant Number mean: 0.360619 max: 0.697019
DILUPBiCG:  Solving for T, Initial residual = 0.00747233, Final residual = 2.18612e-09, No Iterations 3
DILUPBiCG:  Solving for T, Initial residual = 4.38068e-05, Final residual = 1.48789e-09, No Iterations 2
DILUPBiCG:  Solving for T, Initial residual = 2.63333e-07, Final residual = 1.58801e-09, No Iterations 1
DILUPBiCG:  Solving for T, Initial residual = 4.80561e-09, Final residual = 4.80561e-09, No Iterations 0
 T goes from min(T) [0 0 0 0 0 0 0] 8.77933e-21 to max(T) [0 0 0 0 0 0 0] 0.952848

ExecutionTime = 71.88 s  ClockTime = 1163 s

Time = 0.64
Courant Number mean: 0.360431 max: 0.696433
DILUPBiCG:  Solving for T, Initial residual = 0.00749036, Final residual = 2.28275e-09, No Iterations 3
DILUPBiCG:  Solving for T, Initial residual = 4.41323e-05, Final residual = 1.54093e-09, No Iterations 2
DILUPBiCG:  Solving for T, Initial residual = 2.69274e-07, Final residual = 1.64325e-09, No Iterations 1
DILUPBiCG:  Solving for T, Initial residual = 4.92057e-09, Final residual = 4.92057e-09, No Iterations 0
 T goes from min(T) [0 0 0 0 0 0 0] 9.20721e-21 to max(T) [0 0 0 0 0 0 0] 0.95233

ExecutionTime = 72.39 s  ClockTime = 1169 s

Time = 0.645
Courant Number mean: 0.36023 max: 0.695802
DILUPBiCG:  Solving for T, Initial residual = 0.00751052, Final residual = 2.39284e-09, No Iterations 3
DILUPBiCG:  Solving for T, Initial residual = 4.44818e-05, Final residual = 1.59437e-09, No Iterations 2
DILUPBiCG:  Solving for T, Initial residual = 2.75437e-07, Final residual = 1.70154e-09, No Iterations 1
DILUPBiCG:  Solving for T, Initial residual = 5.06856e-09, Final residual = 5.06856e-09, No Iterations 0
 T goes from min(T) [0 0 0 0 0 0 0] 9.11274e-21 to max(T) [0 0 0 0 0 0 0] 0.951543

ExecutionTime = 72.91 s  ClockTime = 1176 s

Time = 0.65
Courant Number mean: 0.36001 max: 0.695203
DILUPBiCG:  Solving for T, Initial residual = 0.00752975, Final residual = 2.52793e-09, No Iterations 3
DILUPBiCG:  Solving for T, Initial residual = 4.48148e-05, Final residual = 1.64793e-09, No Iterations 2
DILUPBiCG:  Solving for T, Initial residual = 2.81742e-07, Final residual = 1.76902e-09, No Iterations 1
DILUPBiCG:  Solving for T, Initial residual = 5.26802e-09, Final residual = 5.26802e-09, No Iterations 0
 T goes from min(T) [0 0 0 0 0 0 0] 8.77752e-21 to max(T) [0 0 0 0 0 0 0] 0.951274

ExecutionTime = 73.42 s  ClockTime = 1183 s

Time = 0.655
Courant Number mean: 0.35977 max: 0.694569
DILUPBiCG:  Solving for T, Initial residual = 0.00754959, Final residual = 2.67984e-09, No Iterations 3
DILUPBiCG:  Solving for T, Initial residual = 4.5161e-05, Final residual = 1.70284e-09, No Iterations 2
[...]
 T goes from min(T) [0 0 0 0 0 0 0] -0.107039 to max(T) [0 0 0 0 0 0 0] 0.904165

ExecutionTime = 609.18 s  ClockTime = 4123 s

Time = 5.84
Courant Number mean: 0.350897 max: 0.668502
DILUPBiCG:  Solving for T, Initial residual = 0.00888876, Final residual = 5.16634e-10, No Iterations 3
DILUPBiCG:  Solving for T, Initial residual = 0.000108719, Final residual = 1.59406e-09, No Iterations 2
DILUPBiCG:  Solving for T, Initial residual = 4.03255e-06, Final residual = 5.36878e-11, No Iterations 2
DILUPBiCG:  Solving for T, Initial residual = 2.57019e-07, Final residual = 2.04109e-09, No Iterations 1
 T goes from min(T) [0 0 0 0 0 0 0] -0.10748 to max(T) [0 0 0 0 0 0 0] 0.904336

ExecutionTime = 609.75 s  ClockTime = 4125 s

Time = 5.845
Courant Number mean: 0.350621 max: 0.667704
DILUPBiCG:  Solving for T, Initial residual = 0.008916, Final residual = 5.19101e-10, No Iterations 3
DILUPBiCG:  Solving for T, Initial residual = 0.000109349, Final residual = 1.61316e-09, No Iterations 2
DILUPBiCG:  Solving for T, Initial residual = 4.04986e-06, Final residual = 5.53761e-11, No Iterations 2
DILUPBiCG:  Solving for T, Initial residual = 2.59885e-07, Final residual = 1.90606e-09, No Iterations 1
 T goes from min(T) [0 0 0 0 0 0 0] -0.108407 to max(T) [0 0 0 0 0 0 0] 0.904333

ExecutionTime = 610.26 s  ClockTime = 4127 s

Time = 5.85
Courant Number mean: 0.350379 max: 0.666925
DILUPBiCG:  Solving for T, Initial residual = 0.00894238, Final residual = 5.22164e-10, No Iterations 3
DILUPBiCG:  Solving for T, Initial residual = 0.000109816, Final residual = 1.62013e-09, No Iterations 2
DILUPBiCG:  Solving for T, Initial residual = 4.09176e-06, Final residual = 5.4829e-11, No Iterations 2
DILUPBiCG:  Solving for T, Initial residual = 2.61078e-07, Final residual = 1.73065e-09, No Iterations 1
 T goes from min(T) [0 0 0 0 0 0 0] -0.108101 to max(T) [0 0 0 0 0 0 0] 0.904166

ExecutionTime = 610.76 s  ClockTime = 4128 s

Time = 5.855
Courant Number mean: 0.35012 max: 0.666114
DILUPBiCG:  Solving for T, Initial residual = 0.00897194, Final residual = 5.25345e-10, No Iterations 3
DILUPBiCG:  Solving for T, Initial residual = 0.000110415, Final residual = 1.61674e-09, No Iterations 2
DILUPBiCG:  Solving for T, Initial residual = 4.11201e-06, Final residual = 5.2581e-11, No Iterations 2
DILUPBiCG:  Solving for T, Initial residual = 2.61397e-07, Final residual = 1.52242e-09, No Iterations 1
 T goes from min(T) [0 0 0 0 0 0 0] -0.106786 to max(T) [0 0 0 0 0 0 0] 0.903933

ExecutionTime = 611.28 s  ClockTime = 4130 s

Time = 5.86
Courant Number mean: 0.349843 max: 0.665331
DILUPBiCG:  Solving for T, Initial residual = 0.00900216, Final residual = 5.28152e-10, No Iterations 3
DILUPBiCG:  Solving for T, Initial residual = 0.000110989, Final residual = 1.60264e-09, No Iterations 2
DILUPBiCG:  Solving for T, Initial residual = 4.12539e-06, Final residual = 4.98447e-11, No Iterations 2
DILUPBiCG:  Solving for T, Initial residual = 2.64441e-07, Final residual = 1.38477e-09, No Iterations 1
 T goes from min(T) [0 0 0 0 0 0 0] -0.107273 to max(T) [0 0 0 0 0 0 0] 0.90359

ExecutionTime = 611.73 s  ClockTime = 4132 s

Time = 5.865
Courant Number mean: 0.349554 max: 0.664508
DILUPBiCG:  Solving for T, Initial residual = 0.00902552, Final residual = 5.30764e-10, No Iterations 3
DILUPBiCG:  Solving for T, Initial residual = 0.000111341, Final residual = 1.58125e-09, No Iterations 2
DILUPBiCG:  Solving for T, Initial residual = 4.16277e-06, Final residual = 4.78258e-11, No Iterations 2
DILUPBiCG:  Solving for T, Initial residual = 2.66047e-07, Final residual = 1.26668e-09, No Iterations 1
 T goes from min(T) [0 0 0 0 0 0 0] -0.108104 to max(T) [0 0 0 0 0 0 0] 0.9031

ExecutionTime = 612.2 s  ClockTime = 4133 s

Time = 5.87
Courant Number mean: 0.34931 max: 0.66372
DILUPBiCG:  Solving for T, Initial residual = 0.00905581, Final residual = 5.35398e-10, No Iterations 3
DILUPBiCG:  Solving for T, Initial residual = 0.000112049, Final residual = 1.55732e-09, No Iterations 2
DILUPBiCG:  Solving for T, Initial residual = 4.18899e-06, Final residual = 4.64267e-11, No Iterations 2
DILUPBiCG:  Solving for T, Initial residual = 2.66344e-07, Final residual = 1.17956e-09, No Iterations 1
 T goes from min(T) [0 0 0 0 0 0 0] -0.10782 to max(T) [0 0 0 0 0 0 0] 0.902472

ExecutionTime = 612.71 s  ClockTime = 4135 s

Time = 5.875
Courant Number mean: 0.34905 max: 0.662883
DILUPBiCG:  Solving for T, Initial residual = 0.00908597, Final residual = 5.4139e-10, No Iterations 3
DILUPBiCG:  Solving for T, Initial residual = 0.000112712, Final residual = 1.53333e-09, No Iterations 2
DILUPBiCG:  Solving for T, Initial residual = 4.20337e-06, Final residual = 4.56494e-11, No Iterations 2
DILUPBiCG:  Solving for T, Initial residual = 2.68684e-07, Final residual = 1.14514e-09, No Iterations 1
 T goes from min(T) [0 0 0 0 0 0 0] -0.106739 to max(T) [0 0 0 0 0 0 0] 0.901711

ExecutionTime = 613.25 s  ClockTime = 4137 s

Time = 5.88
Courant Number mean: 0.348771 max: 0.662091
DILUPBiCG:  Solving for T, Initial residual = 0.00911152, Final residual = 5.4892e-10, No Iterations 3
DILUPBiCG:  Solving for T, Initial residual = 0.000112982, Final residual = 1.51136e-09, No Iterations 2
DILUPBiCG:  Solving for T, Initial residual = 4.23424e-06, Final residual = 4.5485e-11, No Iterations 2
DILUPBiCG:  Solving for T, Initial residual = 2.70527e-07, Final residual = 1.10708e-09, No Iterations 1
 T goes from min(T) [0 0 0 0 0 0 0] -0.106987 to max(T) [0 0 0 0 0 0 0] 0.900825

ExecutionTime = 613.76 s  ClockTime = 4138 s

Time = 5.885
Courant Number mean: 0.348474 max: 0.661251
DILUPBiCG:  Solving for T, Initial residual = 0.00913859, Final residual = 5.59887e-10, No Iterations 3
DILUPBiCG:  Solving for T, Initial residual = 0.000113631, Final residual = 1.49632e-09, No Iterations 2
DILUPBiCG:  Solving for T, Initial residual = 4.2613e-06, Final residual = 4.60152e-11, No Iterations 2
DILUPBiCG:  Solving for T, Initial residual = 2.70975e-07, Final residual = 1.08298e-09, No Iterations 1
 T goes from min(T) [0 0 0 0 0 0 0] -0.107795 to max(T) [0 0 0 0 0 0 0] 0.901547

ExecutionTime = 614.41 s  ClockTime = 4140 s

Time = 5.89
Courant Number mean: 0.348224 max: 0.660446
DILUPBiCG:  Solving for T, Initial residual = 0.00916685, Final residual = 5.7559e-10, No Iterations 3
DILUPBiCG:  Solving for T, Initial residual = 0.000114363, Final residual = 1.48542e-09, No Iterations 2
DILUPBiCG:  Solving for T, Initial residual = 4.27825e-06, Final residual = 4.7211e-11, No Iterations 2
DILUPBiCG:  Solving for T, Initial residual = 2.73253e-07, Final residual = 1.09123e-09, No Iterations 1
 T goes from min(T) [0 0 0 0 0 0 0] -0.107607 to max(T) [0 0 0 0 0 0 0] 0.902092

ExecutionTime = 614.92 s  ClockTime = 4142 s

Time = 5.895
Courant Number mean: 0.347961 max: 0.659601
DILUPBiCG:  Solving for T, Initial residual = 0.00919676, Final residual = 5.98922e-10, No Iterations 3
DILUPBiCG:  Solving for T, Initial residual = 0.000114622, Final residual = 1.47823e-09, No Iterations 2
DILUPBiCG:  Solving for T, Initial residual = 4.3099e-06, Final residual = 4.90177e-11, No Iterations 2
DILUPBiCG:  Solving for T, Initial residual = 2.74836e-07, Final residual = 1.08462e-09, No Iterations 1
 T goes from min(T) [0 0 0 0 0 0 0] -0.106733 to max(T) [0 0 0 0 0 0 0] 0.90241

ExecutionTime = 615.43 s  ClockTime = 4143 s

Time = 5.9
Courant Number mean: 0.347681 max: 0.658784
DILUPBiCG:  Solving for T, Initial residual = 0.00922578, Final residual = 6.33566e-10, No Iterations 3
DILUPBiCG:  Solving for T, Initial residual = 0.000115197, Final residual = 1.47677e-09, No Iterations 2
DILUPBiCG:  Solving for T, Initial residual = 4.33023e-06, Final residual = 5.18428e-11, No Iterations 2
DILUPBiCG:  Solving for T, Initial residual = 2.75386e-07, Final residual = 1.06086e-09, No Iterations 1
 T goes from min(T) [0 0 0 0 0 0 0] -0.106646 to max(T) [0 0 0 0 0 0 0] 0.902515

ExecutionTime = 615.94 s  ClockTime = 4145 s

Time = 5.905
Courant Number mean: 0.347385 max: 0.657934
DILUPBiCG:  Solving for T, Initial residual = 0.009252, Final residual = 6.85192e-10, No Iterations 3
DILUPBiCG:  Solving for T, Initial residual = 0.000115961, Final residual = 1.4811e-09, No Iterations 2
DILUPBiCG:  Solving for T, Initial residual = 4.34833e-06, Final residual = 5.60612e-11, No Iterations 2
DILUPBiCG:  Solving for T, Initial residual = 2.77745e-07, Final residual = 1.04349e-09, No Iterations 1
 T goes from min(T) [0 0 0 0 0 0 0] -0.107482 to max(T) [0 0 0 0 0 0 0] 0.90242

ExecutionTime = 616.44 s  ClockTime = 4146 s

Time = 5.91
Courant Number mean: 0.347121 max: 0.657105
DILUPBiCG:  Solving for T, Initial residual = 0.00928335, Final residual = 7.61591e-10, No Iterations 3
DILUPBiCG:  Solving for T, Initial residual = 0.000116285, Final residual = 1.4884e-09, No Iterations 2
DILUPBiCG:  Solving for T, Initial residual = 4.37957e-06, Final residual = 6.20127e-11, No Iterations 2
DILUPBiCG:  Solving for T, Initial residual = 2.79039e-07, Final residual = 1.01477e-09, No Iterations 1
 T goes from min(T) [0 0 0 0 0 0 0] -0.107412 to max(T) [0 0 0 0 0 0 0] 0.902297

ExecutionTime = 616.94 s  ClockTime = 4148 s

Time = 5.915
Courant Number mean: 0.346856 max: 0.65625
DILUPBiCG:  Solving for T, Initial residual = 0.00931243, Final residual = 8.80053e-10, No Iterations 3
DILUPBiCG:  Solving for T, Initial residual = 0.00011685, Final residual = 1.49978e-09, No Iterations 2
DILUPBiCG:  Solving for T, Initial residual = 4.40339e-06, Final residual = 7.01593e-11, No Iterations 2
DILUPBiCG:  Solving for T, Initial residual = 2.79169e-07, Final residual = 9.80729e-10, No Iterations 1
 T goes from min(T) [0 0 0 0 0 0 0] -0.106732 to max(T) [0 0 0 0 0 0 0] 0.902013

ExecutionTime = 617.45 s  ClockTime = 4149 s

Time = 5.92
Courant Number mean: 0.346575 max: 0.655409
DILUPBiCG:  Solving for T, Initial residual = 0.00934102, Final residual = 1.07327e-09, No Iterations 3
DILUPBiCG:  Solving for T, Initial residual = 0.000117546, Final residual = 1.51572e-09, No Iterations 2
DILUPBiCG:  Solving for T, Initial residual = 4.4156e-06, Final residual = 8.21765e-11, No Iterations 2
DILUPBiCG:  Solving for T, Initial residual = 2.81843e-07, Final residual = 9.41624e-10, No Iterations 1
 T goes from min(T) [0 0 0 0 0 0 0] -0.106244 to max(T) [0 0 0 0 0 0 0] 0.901568

ExecutionTime = 617.95 s  ClockTime = 4151 s

Time = 5.925
Courant Number mean: 0.346278 max: 0.65455
DILUPBiCG:  Solving for T, Initial residual = 0.0093704, Final residual = 1.41704e-09, No Iterations 3
DILUPBiCG:  Solving for T, Initial residual = 0.000117881, Final residual = 1.53417e-09, No Iterations 2
DILUPBiCG:  Solving for T, Initial residual = 4.44271e-06, Final residual = 9.98111e-11, No Iterations 2
DILUPBiCG:  Solving for T, Initial residual = 2.83459e-07, Final residual = 8.82308e-10, No Iterations 1
 T goes from min(T) [0 0 0 0 0 0 0] -0.107154 to max(T) [0 0 0 0 0 0 0] 0.900972

ExecutionTime = 618.48 s  ClockTime = 4152 s

Time = 5.93
Courant Number mean: 0.346001 max: 0.653697
DILUPBiCG:  Solving for T, Initial residual = 0.00940078, Final residual = 2.14924e-09, No Iterations 3
DILUPBiCG:  Solving for T, Initial residual = 0.000118443, Final residual = 1.55611e-09, No Iterations 2
DILUPBiCG:  Solving for T, Initial residual = 4.47767e-06, Final residual = 1.2512e-10, No Iterations 2
DILUPBiCG:  Solving for T, Initial residual = 2.83155e-07, Final residual = 8.16988e-10, No Iterations 1
 T goes from min(T) [0 0 0 0 0 0 0] -0.107249 to max(T) [0 0 0 0 0 0 0] 0.900234

ExecutionTime = 618.98 s  ClockTime = 4154 s

Time = 5.935
Courant Number mean: 0.345736 max: 0.652833
DILUPBiCG:  Solving for T, Initial residual = 0.00943362, Final residual = 4.68046e-09, No Iterations 3
DILUPBiCG:  Solving for T, Initial residual = 0.000119179, Final residual = 1.58215e-09, No Iterations 2
DILUPBiCG:  Solving for T, Initial residual = 4.48452e-06, Final residual = 1.57695e-10, No Iterations 2
DILUPBiCG:  Solving for T, Initial residual = 2.85481e-07, Final residual = 7.56231e-10, No Iterations 1
 T goes from min(T) [0 0 0 0 0 0 0] -0.106696 to max(T) [0 0 0 0 0 0 0] 0.899364

ExecutionTime = 619.5 s  ClockTime = 4155 s

Time = 5.94
Courant Number mean: 0.345454 max: 0.651967
DILUPBiCG:  Solving for T, Initial residual = 0.00945741, Final residual = 7.20081e-12, No Iterations 4
DILUPBiCG:  Solving for T, Initial residual = 0.000119493, Final residual = 1.60958e-09, No Iterations 2
DILUPBiCG:  Solving for T, Initial residual = 4.50142e-06, Final residual = 2.51789e-10, No Iterations 2
DILUPBiCG:  Solving for T, Initial residual = 2.87712e-07, Final residual = 7.38041e-10, No Iterations 1
 T goes from min(T) [0 0 0 0 0 0 0] -0.105768 to max(T) [0 0 0 0 0 0 0] 0.89837

ExecutionTime = 620.15 s  ClockTime = 4157 s

Time = 5.945
Courant Number mean: 0.345155 max: 0.6511
DILUPBiCG:  Solving for T, Initial residual = 0.00949036, Final residual = 5.17104e-09, No Iterations 3
DILUPBiCG:  Solving for T, Initial residual = 0.000120081, Final residual = 1.6414e-09, No Iterations 2
DILUPBiCG:  Solving for T, Initial residual = 4.54519e-06, Final residual = 8.58529e-10, No Iterations 2
DILUPBiCG:  Solving for T, Initial residual = 2.87602e-07, Final residual = 7.18812e-10, No Iterations 1
 T goes from min(T) [0 0 0 0 0 0 0] -0.106785 to max(T) [0 0 0 0 0 0 0] 0.897259

ExecutionTime = 620.66 s  ClockTime = 4159 s

Time = 5.95
Courant Number mean: 0.344867 max: 0.650222
DILUPBiCG:  Solving for T, Initial residual = 0.00952247, Final residual = 6.95853e-09, No Iterations 3
DILUPBiCG:  Solving for T, Initial residual = 0.000120805, Final residual = 1.67808e-09, No Iterations 2
DILUPBiCG:  Solving for T, Initial residual = 4.56208e-06, Final residual = 1.38812e-09, No Iterations 2
DILUPBiCG:  Solving for T, Initial residual = 2.8852e-07, Final residual = 6.79058e-10, No Iterations 1
 T goes from min(T) [0 0 0 0 0 0 0] -0.107064 to max(T) [0 0 0 0 0 0 0] 0.898266

ExecutionTime = 621.18 s  ClockTime = 4160 s

Time = 5.955
Courant Number mean: 0.344602 max: 0.649349
DILUPBiCG:  Solving for T, Initial residual = 0.00954727, Final residual = 7.34086e-12, No Iterations 4
DILUPBiCG:  Solving for T, Initial residual = 0.000121168, Final residual = 1.71478e-09, No Iterations 2
DILUPBiCG:  Solving for T, Initial residual = 4.55768e-06, Final residual = 6.83386e-10, No Iterations 2
DILUPBiCG:  Solving for T, Initial residual = 2.91348e-07, Final residual = 5.99484e-10, No Iterations 1
 T goes from min(T) [0 0 0 0 0 0 0] -0.106754 to max(T) [0 0 0 0 0 0 0] 0.899185

ExecutionTime = 621.66 s  ClockTime = 4162 s

Time = 5.96
Courant Number mean: 0.34432 max: 0.648459
DILUPBiCG:  Solving for T, Initial residual = 0.00957737, Final residual = 7.45277e-12, No Iterations 4
DILUPBiCG:  Solving for T, Initial residual = 0.000121647, Final residual = 1.75971e-09, No Iterations 2
DILUPBiCG:  Solving for T, Initial residual = 4.60277e-06, Final residual = 2.95408e-10, No Iterations 2
DILUPBiCG:  Solving for T, Initial residual = 2.91505e-07, Final residual = 5.71432e-10, No Iterations 1
 T goes from min(T) [0 0 0 0 0 0 0] -0.105997 to max(T) [0 0 0 0 0 0 0] 0.89981

ExecutionTime = 622.15 s  ClockTime = 4163 s

Time = 5.965
Courant Number mean: 0.34402 max: 0.647583
DILUPBiCG:  Solving for T, Initial residual = 0.0096083, Final residual = 4.67198e-09, No Iterations 3
DILUPBiCG:  Solving for T, Initial residual = 0.000122437, Final residual = 1.80993e-09, No Iterations 2
DILUPBiCG:  Solving for T, Initial residual = 4.63641e-06, Final residual = 2.03998e-10, No Iterations 2
DILUPBiCG:  Solving for T, Initial residual = 2.92413e-07, Final residual = 5.37676e-10, No Iterations 1
 T goes from min(T) [0 0 0 0 0 0 0] -0.106335 to max(T) [0 0 0 0 0 0 0] 0.900157

ExecutionTime = 622.66 s  ClockTime = 4165 s

Time = 5.97
Courant Number mean: 0.343722 max: 0.646681
DILUPBiCG:  Solving for T, Initial residual = 0.00963726, Final residual = 2.79071e-09, No Iterations 3
DILUPBiCG:  Solving for T, Initial residual = 0.000122859, Final residual = 1.8624e-09, No Iterations 2
DILUPBiCG:  Solving for T, Initial residual = 4.62824e-06, Final residual = 1.41828e-10, No Iterations 2
DILUPBiCG:  Solving for T, Initial residual = 2.94769e-07, Final residual = 5.19918e-10, No Iterations 1
 T goes from min(T) [0 0 0 0 0 0 0] -0.106803 to max(T) [0 0 0 0 0 0 0] 0.900243

ExecutionTime = 623.19 s  ClockTime = 4166 s

Time = 5.975
Courant Number mean: 0.343454 max: 0.6458
DILUPBiCG:  Solving for T, Initial residual = 0.0096659, Final residual = 1.94443e-09, No Iterations 3
DILUPBiCG:  Solving for T, Initial residual = 0.000123233, Final residual = 1.91907e-09, No Iterations 2
DILUPBiCG:  Solving for T, Initial residual = 4.65653e-06, Final residual = 1.10118e-10, No Iterations 2
DILUPBiCG:  Solving for T, Initial residual = 2.95472e-07, Final residual = 4.952e-10, No Iterations 1
 T goes from min(T) [0 0 0 0 0 0 0] -0.106727 to max(T) [0 0 0 0 0 0 0] 0.90017

ExecutionTime = 623.71 s  ClockTime = 4168 s

Time = 5.98
Courant Number mean: 0.34317 max: 0.644886
DILUPBiCG:  Solving for T, Initial residual = 0.00969555, Final residual = 1.45619e-09, No Iterations 3
DILUPBiCG:  Solving for T, Initial residual = 0.000124005, Final residual = 1.9848e-09, No Iterations 2
DILUPBiCG:  Solving for T, Initial residual = 4.6986e-06, Final residual = 9.20315e-11, No Iterations 2
DILUPBiCG:  Solving for T, Initial residual = 2.95988e-07, Final residual = 4.71869e-10, No Iterations 1
 T goes from min(T) [0 0 0 0 0 0 0] -0.106226 to max(T) [0 0 0 0 0 0 0] 0.899933

ExecutionTime = 624.22 s  ClockTime = 4169 s

Time = 5.985
Courant Number mean: 0.342872 max: 0.644
DILUPBiCG:  Solving for T, Initial residual = 0.00972748, Final residual = 1.12314e-09, No Iterations 3
DILUPBiCG:  Solving for T, Initial residual = 0.00012451, Final residual = 2.06191e-09, No Iterations 2
DILUPBiCG:  Solving for T, Initial residual = 4.69897e-06, Final residual = 7.99492e-11, No Iterations 2
DILUPBiCG:  Solving for T, Initial residual = 2.97791e-07, Final residual = 4.63941e-10, No Iterations 1
 T goes from min(T) [0 0 0 0 0 0 0] -0.105752 to max(T) [0 0 0 0 0 0 0] 0.899499

ExecutionTime = 624.74 s  ClockTime = 4171 s

Time = 5.99
Courant Number mean: 0.342561 max: 0.643076
DILUPBiCG:  Solving for T, Initial residual = 0.00975747, Final residual = 1.09887e-09, No Iterations 3
DILUPBiCG:  Solving for T, Initial residual = 0.000124864, Final residual = 2.1453e-09, No Iterations 2
DILUPBiCG:  Solving for T, Initial residual = 4.70977e-06, Final residual = 7.08125e-11, No Iterations 2
DILUPBiCG:  Solving for T, Initial residual = 2.98694e-07, Final residual = 4.53114e-10, No Iterations 1
 T goes from min(T) [0 0 0 0 0 0 0] -0.106398 to max(T) [0 0 0 0 0 0 0] 0.898882

ExecutionTime = 625.24 s  ClockTime = 4173 s

Time = 5.995
Courant Number mean: 0.342293 max: 0.642185
DILUPBiCG:  Solving for T, Initial residual = 0.00978696, Final residual = 1.13325e-09, No Iterations 3
DILUPBiCG:  Solving for T, Initial residual = 0.000125499, Final residual = 2.23953e-09, No Iterations 2
DILUPBiCG:  Solving for T, Initial residual = 4.75228e-06, Final residual = 6.47794e-11, No Iterations 2
DILUPBiCG:  Solving for T, Initial residual = 2.99755e-07, Final residual = 4.3962e-10, No Iterations 1
 T goes from min(T) [0 0 0 0 0 0 0] -0.10653 to max(T) [0 0 0 0 0 0 0] 0.898093

ExecutionTime = 625.88 s  ClockTime = 4175 s

Time = 6
Courant Number mean: 0.342009 max: 0.641248
DILUPBiCG:  Solving for T, Initial residual = 0.00981714, Final residual = 1.22606e-09, No Iterations 3
DILUPBiCG:  Solving for T, Initial residual = 0.000126112, Final residual = 2.34464e-09, No Iterations 2
DILUPBiCG:  Solving for T, Initial residual = 4.76635e-06, Final residual = 5.9648e-11, No Iterations 2
DILUPBiCG:  Solving for T, Initial residual = 3.0096e-07, Final residual = 4.21546e-10, No Iterations 1
 T goes from min(T) [0 0 0 0 0 0 0] -0.106246 to max(T) [0 0 0 0 0 0 0] 0.897147

ExecutionTime = 626.41 s  ClockTime = 4176 s

End

