/*---------------------------------------------------------------------------*\
| =========                 |                                                 |
| \\      /  F ield         | OpenFOAM: The Open Source CFD Toolbox           |
|  \\    /   O peration     | Version:  dev                                   |
|   \\  /    A nd           | Web:      www.OpenFOAM.org                      |
|    \\/     M anipulation  |                                                 |
\*---------------------------------------------------------------------------*/
Build  : dev-90f39e0d894d
Exec   : scalarDeformationWithGhosts implicit -case nonOrthogW/240x120/c5_implicit
Date   : May 23 2017
Time   : 20:31:27
Host   : "sws02hw.private.rdg.ac.uk"
PID    : 22933
Case   : nonOrthogW/240x120/c5_implicit
nProcs : 1
sigFpe : Enabling floating point exception trapping (FOAM_SIGFPE).
fileModificationChecking : Monitoring run-time modified files using timeStampMaster (fileModificationSkew 10)
allowSystemOperations : Allowing user-supplied system call operations

// * * * * * * * * * * * * * * * * * * * * * * * * * * * * * * * * * * * * * //
Create time

Create mesh for time = 0

Reading field T

Reading fields phi (compulsory), U and Uf (optional)

Calculating owner stencils
Calculating neighbour stencils

Calculating scalar transport

Courant Number mean: 2.32799 max: 4.82541
Time = 0.025
Courant Number mean: 2.32715 max: 4.85775
DILUPBiCG:  Solving for T, Initial residual = 0.0335401, Final residual = 7.63457e-09, No Iterations 7
DILUPBiCG:  Solving for T, Initial residual = 0.000646327, Final residual = 3.90385e-09, No Iterations 5
DILUPBiCG:  Solving for T, Initial residual = 1.00203e-05, Final residual = 1.50882e-09, No Iterations 4
DILUPBiCG:  Solving for T, Initial residual = 8.50433e-07, Final residual = 2.1736e-09, No Iterations 3
 T goes from min(T) [0 0 0 0 0 0 0] 7.97912e-21 to max(T) [0 0 0 0 0 0 0] 0.953731

ExecutionTime = 8.33 s  ClockTime = 164 s

Time = 0.05
Courant Number mean: 2.32459 max: 4.8881
DILUPBiCG:  Solving for T, Initial residual = 0.0335608, Final residual = 9.2651e-09, No Iterations 7
DILUPBiCG:  Solving for T, Initial residual = 0.000654831, Final residual = 3.84149e-09, No Iterations 5
DILUPBiCG:  Solving for T, Initial residual = 1.05468e-05, Final residual = 9.33812e-09, No Iterations 3
DILUPBiCG:  Solving for T, Initial residual = 1.00061e-06, Final residual = 2.80943e-09, No Iterations 3
 T goes from min(T) [0 0 0 0 0 0 0] 7.7507e-21 to max(T) [0 0 0 0 0 0 0] 0.954177

ExecutionTime = 8.86 s  ClockTime = 174 s

Time = 0.075
Courant Number mean: 2.32033 max: 4.91717
DILUPBiCG:  Solving for T, Initial residual = 0.0336376, Final residual = 1.4421e-09, No Iterations 8
DILUPBiCG:  Solving for T, Initial residual = 0.000666749, Final residual = 4.16714e-09, No Iterations 5
DILUPBiCG:  Solving for T, Initial residual = 1.16838e-05, Final residual = 8.88104e-09, No Iterations 3
DILUPBiCG:  Solving for T, Initial residual = 1.24464e-06, Final residual = 1.63996e-10, No Iterations 4
 T goes from min(T) [0 0 0 0 0 0 0] 7.88733e-21 to max(T) [0 0 0 0 0 0 0] 0.954773

ExecutionTime = 9.4 s  ClockTime = 184 s

Time = 0.1
Courant Number mean: 2.31437 max: 4.94565
DILUPBiCG:  Solving for T, Initial residual = 0.033732, Final residual = 9.44465e-09, No Iterations 7
DILUPBiCG:  Solving for T, Initial residual = 0.000681751, Final residual = 4.7075e-09, No Iterations 5
DILUPBiCG:  Solving for T, Initial residual = 1.32458e-05, Final residual = 1.91448e-09, No Iterations 4
DILUPBiCG:  Solving for T, Initial residual = 1.60546e-06, Final residual = 2.11726e-10, No Iterations 4
 T goes from min(T) [0 0 0 0 0 0 0] 8.42118e-21 to max(T) [0 0 0 0 0 0 0] 0.954997

ExecutionTime = 9.94 s  ClockTime = 194 s

Time = 0.125
Courant Number mean: 2.30674 max: 4.97201
DILUPBiCG:  Solving for T, Initial residual = 0.0338355, Final residual = 9.56291e-09, No Iterations 7
DILUPBiCG:  Solving for T, Initial residual = 0.00069993, Final residual = 5.3743e-09, No Iterations 5
DILUPBiCG:  Solving for T, Initial residual = 1.52559e-05, Final residual = 5.94935e-09, No Iterations 4
DILUPBiCG:  Solving for T, Initial residual = 2.11216e-06, Final residual = 6.75035e-09, No Iterations 3
 T goes from min(T) [0 0 0 0 0 0 0] -5.938e-14 to max(T) [0 0 0 0 0 0 0] 0.955777

ExecutionTime = 10.52 s  ClockTime = 205 s

Time = 0.15
Courant Number mean: 2.29743 max: 4.99629
DILUPBiCG:  Solving for T, Initial residual = 0.0339463, Final residual = 1.56222e-09, No Iterations 8
DILUPBiCG:  Solving for T, Initial residual = 0.00072075, Final residual = 7.04079e-09, No Iterations 5
DILUPBiCG:  Solving for T, Initial residual = 1.7826e-05, Final residual = 4.31305e-09, No Iterations 4
DILUPBiCG:  Solving for T, Initial residual = 2.76034e-06, Final residual = 4.96117e-09, No Iterations 3
 T goes from min(T) [0 0 0 0 0 0 0] -5.95195e-13 to max(T) [0 0 0 0 0 0 0] 0.956295

ExecutionTime = 11.04 s  ClockTime = 215 s

Time = 0.175
Courant Number mean: 2.28671 max: 5.02052
DILUPBiCG:  Solving for T, Initial residual = 0.0340623, Final residual = 2.08261e-09, No Iterations 8
DILUPBiCG:  Solving for T, Initial residual = 0.000743465, Final residual = 9.04345e-09, No Iterations 5
DILUPBiCG:  Solving for T, Initial residual = 2.07549e-05, Final residual = 3.76694e-09, No Iterations 4
DILUPBiCG:  Solving for T, Initial residual = 3.53809e-06, Final residual = 3.95827e-09, No Iterations 3
 T goes from min(T) [0 0 0 0 0 0 0] -2.40721e-12 to max(T) [0 0 0 0 0 0 0] 0.95648

ExecutionTime = 11.58 s  ClockTime = 225 s

Time = 0.2
Courant Number mean: 2.27484 max: 5.04251
DILUPBiCG:  Solving for T, Initial residual = 0.0341812, Final residual = 2.72023e-09, No Iterations 8
DILUPBiCG:  Solving for T, Initial residual = 0.000768144, Final residual = 6.49033e-09, No Iterations 5
DILUPBiCG:  Solving for T, Initial residual = 2.40327e-05, Final residual = 5.9454e-09, No Iterations 4
DILUPBiCG:  Solving for T, Initial residual = 4.41585e-06, Final residual = 3.55814e-09, No Iterations 3
 T goes from min(T) [0 0 0 0 0 0 0] -6.57337e-12 to max(T) [0 0 0 0 0 0 0] 0.957094

ExecutionTime = 12.12 s  ClockTime = 234 s

Time = 0.225
Courant Number mean: 2.26199 max: 5.06221
DILUPBiCG:  Solving for T, Initial residual = 0.0343045, Final residual = 2.56663e-09, No Iterations 8
DILUPBiCG:  Solving for T, Initial residual = 0.000794988, Final residual = 7.71416e-09, No Iterations 5
DILUPBiCG:  Solving for T, Initial residual = 2.7586e-05, Final residual = 6.49494e-10, No Iterations 5
DILUPBiCG:  Solving for T, Initial residual = 5.35295e-06, Final residual = 3.48775e-09, No Iterations 3
 T goes from min(T) [0 0 0 0 0 0 0] -1.50696e-11 to max(T) [0 0 0 0 0 0 0] 0.957139

ExecutionTime = 12.68 s  ClockTime = 243 s

Time = 0.25
Courant Number mean: 2.24825 max: 5.08121
DILUPBiCG:  Solving for T, Initial residual = 0.0344286, Final residual = 7.78139e-09, No Iterations 8
DILUPBiCG:  Solving for T, Initial residual = 0.000823616, Final residual = 9.00485e-09, No Iterations 5
DILUPBiCG:  Solving for T, Initial residual = 3.12356e-05, Final residual = 6.37026e-10, No Iterations 5
DILUPBiCG:  Solving for T, Initial residual = 6.26121e-06, Final residual = 4.95583e-09, No Iterations 4
 T goes from min(T) [0 0 0 0 0 0 0] -3.49269e-11 to max(T) [0 0 0 0 0 0 0] 0.956954

ExecutionTime = 13.16 s  ClockTime = 252 s

Time = 0.275
Courant Number mean: 2.23372 max: 5.09849
DILUPBiCG:  Solving for T, Initial residual = 0.0345545, Final residual = 2.08947e-09, No Iterations 8
DILUPBiCG:  Solving for T, Initial residual = 0.000853766, Final residual = 1.02269e-09, No Iterations 6
DILUPBiCG:  Solving for T, Initial residual = 3.48325e-05, Final residual = 9.91375e-09, No Iterations 4
DILUPBiCG:  Solving for T, Initial residual = 7.08667e-06, Final residual = 2.22332e-09, No Iterations 4
 T goes from min(T) [0 0 0 0 0 0 0] -6.84031e-11 to max(T) [0 0 0 0 0 0 0] 0.957651

ExecutionTime = 13.68 s  ClockTime = 260 s

Time = 0.3
Courant Number mean: 2.21846 max: 5.11338
DILUPBiCG:  Solving for T, Initial residual = 0.0346881, Final residual = 2.59495e-09, No Iterations 8
DILUPBiCG:  Solving for T, Initial residual = 0.000885373, Final residual = 1.16648e-09, No Iterations 6
DILUPBiCG:  Solving for T, Initial residual = 3.824e-05, Final residual = 6.29172e-09, No Iterations 4
DILUPBiCG:  Solving for T, Initial residual = 7.78327e-06, Final residual = 1.11171e-09, No Iterations 4
 T goes from min(T) [0 0 0 0 0 0 0] -1.17853e-10 to max(T) [0 0 0 0 0 0 0] 0.958089

ExecutionTime = 14.19 s  ClockTime = 269 s

Time = 0.325
Courant Number mean: 2.20253 max: 5.12675
DILUPBiCG:  Solving for T, Initial residual = 0.0348239, Final residual = 3.8527e-09, No Iterations 8
DILUPBiCG:  Solving for T, Initial residual = 0.000918249, Final residual = 1.47263e-09, No Iterations 6
DILUPBiCG:  Solving for T, Initial residual = 4.14231e-05, Final residual = 6.30473e-09, No Iterations 4
DILUPBiCG:  Solving for T, Initial residual = 8.32824e-06, Final residual = 1.0902e-09, No Iterations 4
 T goes from min(T) [0 0 0 0 0 0 0] -1.88077e-10 to max(T) [0 0 0 0 0 0 0] 0.957696

ExecutionTime = 14.78 s  ClockTime = 279 s

Time = 0.35
Courant Number mean: 2.18599 max: 5.13903
DILUPBiCG:  Solving for T, Initial residual = 0.0349736, Final residual = 7.09736e-09, No Iterations 8
DILUPBiCG:  Solving for T, Initial residual = 0.000952724, Final residual = 2.06804e-09, No Iterations 6
DILUPBiCG:  Solving for T, Initial residual = 4.44259e-05, Final residual = 7.05487e-09, No Iterations 4
DILUPBiCG:  Solving for T, Initial residual = 8.7465e-06, Final residual = 1.14784e-09, No Iterations 4
 T goes from min(T) [0 0 0 0 0 0 0] -2.85965e-10 to max(T) [0 0 0 0 0 0 0] 0.958429

ExecutionTime = 15.36 s  ClockTime = 289 s

Time = 0.375
Courant Number mean: 2.16891 max: 5.14885
DILUPBiCG:  Solving for T, Initial residual = 0.0351286, Final residual = 1.07327e-09, No Iterations 9
DILUPBiCG:  Solving for T, Initial residual = 0.000988679, Final residual = 4.44421e-09, No Iterations 6
DILUPBiCG:  Solving for T, Initial residual = 4.72687e-05, Final residual = 7.84826e-09, No Iterations 4
DILUPBiCG:  Solving for T, Initial residual = 9.06118e-06, Final residual = 1.23246e-09, No Iterations 4
 T goes from min(T) [0 0 0 0 0 0 0] -4.27061e-10 to max(T) [0 0 0 0 0 0 0] 0.959166

ExecutionTime = 15.88 s  ClockTime = 298 s

Time = 0.4
Courant Number mean: 2.15132 max: 5.15757
DILUPBiCG:  Solving for T, Initial residual = 0.0353024, Final residual = 7.90038e-09, No Iterations 8
DILUPBiCG:  Solving for T, Initial residual = 0.00102545, Final residual = 5.64958e-10, No Iterations 7
DILUPBiCG:  Solving for T, Initial residual = 4.99366e-05, Final residual = 1.56353e-09, No Iterations 5
DILUPBiCG:  Solving for T, Initial residual = 9.24558e-06, Final residual = 1.39039e-09, No Iterations 4
 T goes from min(T) [0 0 0 0 0 0 0] -1.07387e-09 to max(T) [0 0 0 0 0 0 0] 0.959279

ExecutionTime = 16.4 s  ClockTime = 307 s

Time = 0.425
Courant Number mean: 2.13326 max: 5.16428
DILUPBiCG:  Solving for T, Initial residual = 0.0355068, Final residual = 5.47556e-09, No Iterations 8
DILUPBiCG:  Solving for T, Initial residual = 0.00106277, Final residual = 3.84358e-09, No Iterations 6
DILUPBiCG:  Solving for T, Initial residual = 5.24924e-05, Final residual = 3.18377e-10, No Iterations 6
DILUPBiCG:  Solving for T, Initial residual = 9.34894e-06, Final residual = 9.71895e-09, No Iterations 3
 T goes from min(T) [0 0 0 0 0 0 0] -1.68992e-09 to max(T) [0 0 0 0 0 0 0] 0.959745

ExecutionTime = 16.94 s  ClockTime = 316 s

Time = 0.45
Courant Number mean: 2.11475 max: 5.16846
DILUPBiCG:  Solving for T, Initial residual = 0.0357531, Final residual = 5.25015e-09, No Iterations 8
DILUPBiCG:  Solving for T, Initial residual = 0.00110234, Final residual = 4.1392e-09, No Iterations 6
DILUPBiCG:  Solving for T, Initial residual = 5.51331e-05, Final residual = 8.76259e-09, No Iterations 5
DILUPBiCG:  Solving for T, Initial residual = 9.37312e-06, Final residual = 2.90252e-09, No Iterations 4
 T goes from min(T) [0 0 0 0 0 0 0] -2.54845e-09 to max(T) [0 0 0 0 0 0 0] 0.959032

ExecutionTime = 17.45 s  ClockTime = 325 s

Time = 0.475
Courant Number mean: 2.09586 max: 5.17213
DILUPBiCG:  Solving for T, Initial residual = 0.0360305, Final residual = 5.78482e-09, No Iterations 8
DILUPBiCG:  Solving for T, Initial residual = 0.00114216, Final residual = 4.98914e-09, No Iterations 6
DILUPBiCG:  Solving for T, Initial residual = 5.77614e-05, Final residual = 7.35609e-09, No Iterations 5
DILUPBiCG:  Solving for T, Initial residual = 9.36988e-06, Final residual = 1.33321e-09, No Iterations 5
 T goes from min(T) [0 0 0 0 0 0 0] -3.93868e-09 to max(T) [0 0 0 0 0 0 0] 0.959563

ExecutionTime = 18 s  ClockTime = 334 s

Time = 0.5
Courant Number mean: 2.07659 max: 5.1735
DILUPBiCG:  Solving for T, Initial residual = 0.0363404, Final residual = 5.62852e-09, No Iterations 8
DILUPBiCG:  Solving for T, Initial residual = 0.00118201, Final residual = 6.053e-09, No Iterations 6
DILUPBiCG:  Solving for T, Initial residual = 6.07646e-05, Final residual = 7.7133e-09, No Iterations 5
DILUPBiCG:  Solving for T, Initial residual = 9.37782e-06, Final residual = 5.01468e-09, No Iterations 4
 T goes from min(T) [0 0 0 0 0 0 0] -3.65382e-09 to max(T) [0 0 0 0 0 0 0] 0.959732

ExecutionTime = 18.53 s  ClockTime = 343 s

Time = 0.525
Courant Number mean: 2.057 max: 5.17229
DILUPBiCG:  Solving for T, Initial residual = 0.0366671, Final residual = 5.2828e-09, No Iterations 8
DILUPBiCG:  Solving for T, Initial residual = 0.00122359, Final residual = 7.29747e-09, No Iterations 6
DILUPBiCG:  Solving for T, Initial residual = 6.41056e-05, Final residual = 7.86709e-09, No Iterations 5
DILUPBiCG:  Solving for T, Initial residual = 9.45527e-06, Final residual = 3.4612e-09, No Iterations 4
 T goes from min(T) [0 0 0 0 0 0 0] -3.43842e-09 to max(T) [0 0 0 0 0 0 0] 0.95868

ExecutionTime = 19.05 s  ClockTime = 351 s

Time = 0.55
Courant Number mean: 2.0371 max: 5.16998
DILUPBiCG:  Solving for T, Initial residual = 0.0370038, Final residual = 5.22098e-09, No Iterations 8
DILUPBiCG:  Solving for T, Initial residual = 0.0012674, Final residual = 8.23179e-09, No Iterations 6
DILUPBiCG:  Solving for T, Initial residual = 6.80221e-05, Final residual = 8.57155e-09, No Iterations 5
DILUPBiCG:  Solving for T, Initial residual = 9.64332e-06, Final residual = 4.97246e-09, No Iterations 4
 T goes from min(T) [0 0 0 0 0 0 0] -1.20165e-06 to max(T) [0 0 0 0 0 0 0] 0.959273

ExecutionTime = 19.56 s  ClockTime = 359 s

Time = 0.575
Courant Number mean: 2.01694 max: 5.1659
DILUPBiCG:  Solving for T, Initial residual = 0.0373774, Final residual = 5.22953e-09, No Iterations 8
DILUPBiCG:  Solving for T, Initial residual = 0.00131344, Final residual = 8.35011e-09, No Iterations 6
DILUPBiCG:  Solving for T, Initial residual = 7.25914e-05, Final residual = 7.75196e-10, No Iterations 6
DILUPBiCG:  Solving for T, Initial residual = 9.96879e-06, Final residual = 8.05305e-09, No Iterations 4
 T goes from min(T) [0 0 0 0 0 0 0] -8.60596e-06 to max(T) [0 0 0 0 0 0 0] 0.958991

ExecutionTime = 20.1 s  ClockTime = 368 s

Time = 0.6
Courant Number mean: 1.99652 max: 5.15923
DILUPBiCG:  Solving for T, Initial residual = 0.037754, Final residual = 5.20779e-09, No Iterations 8
DILUPBiCG:  Solving for T, Initial residual = 0.00136402, Final residual = 8.73636e-09, No Iterations 6
DILUPBiCG:  Solving for T, Initial residual = 7.80526e-05, Final residual = 9.18146e-10, No Iterations 6
DILUPBiCG:  Solving for T, Initial residual = 1.05438e-05, Final residual = 6.58842e-10, No Iterations 5
 T goes from min(T) [0 0 0 0 0 0 0] -2.17176e-05 to max(T) [0 0 0 0 0 0 0] 0.957926

ExecutionTime = 20.66 s  ClockTime = 378 s

Time = 0.625
Courant Number mean: 1.97589 max: 5.15099
DILUPBiCG:  Solving for T, Initial residual = 0.0381341, Final residual = 5.07556e-09, No Iterations 8
DILUPBiCG:  Solving for T, Initial residual = 0.00141842, Final residual = 3.85057e-09, No Iterations 7
DILUPBiCG:  Solving for T, Initial residual = 8.42487e-05, Final residual = 1.13465e-09, No Iterations 6
DILUPBiCG:  Solving for T, Initial residual = 1.12975e-05, Final residual = 7.60861e-10, No Iterations 5
 T goes from min(T) [0 0 0 0 0 0 0] -4.27304e-05 to max(T) [0 0 0 0 0 0 0] 0.958931

ExecutionTime = 21.17 s  ClockTime = 387 s

Time = 0.65
Courant Number mean: 1.95508 max: 5.14142
DILUPBiCG:  Solving for T, Initial residual = 0.0385429, Final residual = 4.66329e-09, No Iterations 8
DILUPBiCG:  Solving for T, Initial residual = 0.00147864, Final residual = 6.60766e-09, No Iterations 7
DILUPBiCG:  Solving for T, Initial residual = 9.15651e-05, Final residual = 1.403e-09, No Iterations 6
DILUPBiCG:  Solving for T, Initial residual = 1.23084e-05, Final residual = 9.65704e-10, No Iterations 5
 T goes from min(T) [0 0 0 0 0 0 0] -6.84618e-05 to max(T) [0 0 0 0 0 0 0] 0.958891

ExecutionTime = 21.68 s  ClockTime = 395 s

Time = 0.675
Courant Number mean: 1.93409 max: 5.12929
DILUPBiCG:  Solving for T, Initial residual = 0.0389622, Final residual = 4.21898e-09, No Iterations 8
DILUPBiCG:  Solving for T, Initial residual = 0.0015431, Final residual = 6.13443e-09, No Iterations 7
DILUPBiCG:  Solving for T, Initial residual = 9.98497e-05, Final residual = 9.20986e-09, No Iterations 5
DILUPBiCG:  Solving for T, Initial residual = 1.35996e-05, Final residual = 1.33294e-09, No Iterations 5
 T goes from min(T) [0 0 0 0 0 0 0] -0.000100566 to max(T) [0 0 0 0 0 0 0] 0.958928

ExecutionTime = 22.21 s  ClockTime = 404 s

Time = 0.7
Courant Number mean: 1.913 max: 5.11526
DILUPBiCG:  Solving for T, Initial residual = 0.0393976, Final residual = 4.88166e-09, No Iterations 9
DILUPBiCG:  Solving for T, Initial residual = 0.0016146, Final residual = 2.81083e-09, No Iterations 7
DILUPBiCG:  Solving for T, Initial residual = 0.000109193, Final residual = 8.43633e-09, No Iterations 5
DILUPBiCG:  Solving for T, Initial residual = 1.52089e-05, Final residual = 1.7225e-09, No Iterations 5
 T goes from min(T) [0 0 0 0 0 0 0] -0.000138045 to max(T) [0 0 0 0 0 0 0] 0.958632

ExecutionTime = 22.75 s  ClockTime = 413 s

Time = 0.725
Courant Number mean: 1.89182 max: 5.10026
DILUPBiCG:  Solving for T, Initial residual = 0.039863, Final residual = 4.69031e-09, No Iterations 9
DILUPBiCG:  Solving for T, Initial residual = 0.00169231, Final residual = 3.62133e-10, No Iterations 8
DILUPBiCG:  Solving for T, Initial residual = 0.000119748, Final residual = 3.24692e-09, No Iterations 6
DILUPBiCG:  Solving for T, Initial residual = 1.71896e-05, Final residual = 1.75623e-09, No Iterations 5
 T goes from min(T) [0 0 0 0 0 0 0] -0.000178276 to max(T) [0 0 0 0 0 0 0] 0.958405

ExecutionTime = 23.32 s  ClockTime = 423 s

Time = 0.75
Courant Number mean: 1.87059 max: 5.08273
DILUPBiCG:  Solving for T, Initial residual = 0.0403477, Final residual = 6.71067e-09, No Iterations 9
DILUPBiCG:  Solving for T, Initial residual = 0.00177352, Final residual = 5.67826e-09, No Iterations 7
DILUPBiCG:  Solving for T, Initial residual = 0.000131809, Final residual = 1.99363e-09, No Iterations 6
DILUPBiCG:  Solving for T, Initial residual = 1.96586e-05, Final residual = 2.05101e-09, No Iterations 5
 T goes from min(T) [0 0 0 0 0 0 0] -0.000224651 to max(T) [0 0 0 0 0 0 0] 0.957739

ExecutionTime = 23.86 s  ClockTime = 432 s

Time = 0.775
Courant Number mean: 1.84934 max: 5.06424
DILUPBiCG:  Solving for T, Initial residual = 0.040858, Final residual = 2.15579e-09, No Iterations 9
DILUPBiCG:  Solving for T, Initial residual = 0.00185348, Final residual = 2.47104e-09, No Iterations 7
DILUPBiCG:  Solving for T, Initial residual = 0.000145087, Final residual = 1.85642e-09, No Iterations 6
DILUPBiCG:  Solving for T, Initial residual = 2.25946e-05, Final residual = 5.08489e-09, No Iterations 5
 T goes from min(T) [0 0 0 0 0 0 0] -0.000272988 to max(T) [0 0 0 0 0 0 0] 0.959

ExecutionTime = 24.4 s  ClockTime = 441 s

Time = 0.8
Courant Number mean: 1.82811 max: 5.04358
DILUPBiCG:  Solving for T, Initial residual = 0.0414088, Final residual = 3.61744e-09, No Iterations 9
DILUPBiCG:  Solving for T, Initial residual = 0.00193057, Final residual = 8.77917e-09, No Iterations 6
DILUPBiCG:  Solving for T, Initial residual = 0.000159272, Final residual = 4.14212e-09, No Iterations 6
DILUPBiCG:  Solving for T, Initial residual = 2.57694e-05, Final residual = 5.07297e-09, No Iterations 5
 T goes from min(T) [0 0 0 0 0 0 0] -0.000322816 to max(T) [0 0 0 0 0 0 0] 0.959903

ExecutionTime = 24.94 s  ClockTime = 451 s

Time = 0.825
Courant Number mean: 1.80694 max: 5.02102
DILUPBiCG:  Solving for T, Initial residual = 0.0419595, Final residual = 4.35906e-09, No Iterations 9
DILUPBiCG:  Solving for T, Initial residual = 0.0020033, Final residual = 7.03681e-09, No Iterations 6
DILUPBiCG:  Solving for T, Initial residual = 0.000172885, Final residual = 6.94136e-09, No Iterations 6
DILUPBiCG:  Solving for T, Initial residual = 2.90907e-05, Final residual = 2.28659e-09, No Iterations 5
 T goes from min(T) [0 0 0 0 0 0 0] -0.000374205 to max(T) [0 0 0 0 0 0 0] 0.95934

ExecutionTime = 25.47 s  ClockTime = 460 s

Time = 0.85
Courant Number mean: 1.78589 max: 4.99764
DILUPBiCG:  Solving for T, Initial residual = 0.0425545, Final residual = 1.43787e-09, No Iterations 9
DILUPBiCG:  Solving for T, Initial residual = 0.00207363, Final residual = 7.75865e-09, No Iterations 6
DILUPBiCG:  Solving for T, Initial residual = 0.000185375, Final residual = 2.19656e-09, No Iterations 6
DILUPBiCG:  Solving for T, Initial residual = 3.24778e-05, Final residual = 1.71287e-09, No Iterations 5
 T goes from min(T) [0 0 0 0 0 0 0] -0.000423296 to max(T) [0 0 0 0 0 0 0] 0.959757

ExecutionTime = 26.02 s  ClockTime = 469 s

Time = 0.875
Courant Number mean: 1.76501 max: 4.97182
DILUPBiCG:  Solving for T, Initial residual = 0.0431702, Final residual = 4.60364e-09, No Iterations 10
DILUPBiCG:  Solving for T, Initial residual = 0.0021349, Final residual = 8.90659e-09, No Iterations 7
DILUPBiCG:  Solving for T, Initial residual = 0.000197668, Final residual = 1.3497e-09, No Iterations 6
DILUPBiCG:  Solving for T, Initial residual = 3.59306e-05, Final residual = 1.37319e-09, No Iterations 5
 T goes from min(T) [0 0 0 0 0 0 0] -0.000477331 to max(T) [0 0 0 0 0 0 0] 0.96034

ExecutionTime = 26.56 s  ClockTime = 478 s

Time = 0.9
Courant Number mean: 1.74436 max: 4.94426
DILUPBiCG:  Solving for T, Initial residual = 0.0438002, Final residual = 2.95993e-09, No Iterations 9
DILUPBiCG:  Solving for T, Initial residual = 0.00218512, Final residual = 1.31912e-09, No Iterations 7
DILUPBiCG:  Solving for T, Initial residual = 0.000209017, Final residual = 8.63132e-10, No Iterations 6
DILUPBiCG:  Solving for T, Initial residual = 3.96769e-05, Final residual = 1.16226e-09, No Iterations 5
 T goes from min(T) [0 0 0 0 0 0 0] -0.00052936 to max(T) [0 0 0 0 0 0 0] 0.959898

ExecutionTime = 27.1 s  ClockTime = 487 s

Time = 0.925
Courant Number mean: 1.72399 max: 4.91585
DILUPBiCG:  Solving for T, Initial residual = 0.0444571, Final residual = 1.5608e-09, No Iterations 9
DILUPBiCG:  Solving for T, Initial residual = 0.00222682, Final residual = 1.17474e-09, No Iterations 7
DILUPBiCG:  Solving for T, Initial residual = 0.000218961, Final residual = 6.23057e-10, No Iterations 6
DILUPBiCG:  Solving for T, Initial residual = 4.30449e-05, Final residual = 1.02337e-09, No Iterations 5
 T goes from min(T) [0 0 0 0 0 0 0] -0.000582024 to max(T) [0 0 0 0 0 0 0] 0.960492

ExecutionTime = 27.63 s  ClockTime = 496 s

Time = 0.95
Courant Number mean: 1.70398 max: 4.8851
DILUPBiCG:  Solving for T, Initial residual = 0.0451311, Final residual = 1.30877e-09, No Iterations 9
DILUPBiCG:  Solving for T, Initial residual = 0.00226252, Final residual = 1.44988e-09, No Iterations 7
DILUPBiCG:  Solving for T, Initial residual = 0.000225841, Final residual = 4.75757e-10, No Iterations 6
DILUPBiCG:  Solving for T, Initial residual = 4.56688e-05, Final residual = 9.08993e-10, No Iterations 5
 T goes from min(T) [0 0 0 0 0 0 0] -0.000628695 to max(T) [0 0 0 0 0 0 0] 0.960066

ExecutionTime = 28.18 s  ClockTime = 506 s

Time = 0.975
Courant Number mean: 1.68438 max: 4.85295
DILUPBiCG:  Solving for T, Initial residual = 0.0458221, Final residual = 1.36562e-09, No Iterations 9
DILUPBiCG:  Solving for T, Initial residual = 0.00229166, Final residual = 5.89854e-09, No Iterations 6
DILUPBiCG:  Solving for T, Initial residual = 0.000229567, Final residual = 8.4886e-09, No Iterations 5
DILUPBiCG:  Solving for T, Initial residual = 4.74397e-05, Final residual = 8.2321e-10, No Iterations 5
 T goes from min(T) [0 0 0 0 0 0 0] -0.000680066 to max(T) [0 0 0 0 0 0 0] 0.960116

ExecutionTime = 28.74 s  ClockTime = 515 s

Time = 1
Courant Number mean: 1.66532 max: 4.81782
DILUPBiCG:  Solving for T, Initial residual = 0.0465242, Final residual = 5.07737e-09, No Iterations 8
DILUPBiCG:  Solving for T, Initial residual = 0.00230993, Final residual = 7.33855e-09, No Iterations 6
DILUPBiCG:  Solving for T, Initial residual = 0.000230642, Final residual = 5.46847e-09, No Iterations 5
DILUPBiCG:  Solving for T, Initial residual = 4.81539e-05, Final residual = 7.62466e-10, No Iterations 5
 T goes from min(T) [0 0 0 0 0 0 0] -0.000724804 to max(T) [0 0 0 0 0 0 0] 0.960049

ExecutionTime = 29.28 s  ClockTime = 525 s

Time = 1.025
Courant Number mean: 1.64687 max: 4.7767
DILUPBiCG:  Solving for T, Initial residual = 0.047229, Final residual = 5.34933e-09, No Iterations 8
DILUPBiCG:  Solving for T, Initial residual = 0.00232027, Final residual = 3.43516e-10, No Iterations 8
DILUPBiCG:  Solving for T, Initial residual = 0.00022971, Final residual = 3.88766e-09, No Iterations 5
DILUPBiCG:  Solving for T, Initial residual = 4.80767e-05, Final residual = 7.3966e-10, No Iterations 5
 T goes from min(T) [0 0 0 0 0 0 0] -0.000761499 to max(T) [0 0 0 0 0 0 0] 0.960637

ExecutionTime = 29.82 s  ClockTime = 534 s

Time = 1.05
Courant Number mean: 1.6292 max: 4.72899
DILUPBiCG:  Solving for T, Initial residual = 0.0479394, Final residual = 1.59879e-09, No Iterations 9
DILUPBiCG:  Solving for T, Initial residual = 0.00232756, Final residual = 2.24799e-09, No Iterations 7
DILUPBiCG:  Solving for T, Initial residual = 0.000227667, Final residual = 3.15371e-09, No Iterations 5
DILUPBiCG:  Solving for T, Initial residual = 4.72912e-05, Final residual = 6.90909e-10, No Iterations 5
 T goes from min(T) [0 0 0 0 0 0 0] -0.000816809 to max(T) [0 0 0 0 0 0 0] 0.96011

ExecutionTime = 30.35 s  ClockTime = 543 s

Time = 1.075
Courant Number mean: 1.61261 max: 4.67532
DILUPBiCG:  Solving for T, Initial residual = 0.0486626, Final residual = 6.56644e-10, No Iterations 9
DILUPBiCG:  Solving for T, Initial residual = 0.00233845, Final residual = 6.81542e-09, No Iterations 6
DILUPBiCG:  Solving for T, Initial residual = 0.000223752, Final residual = 3.20337e-09, No Iterations 5
DILUPBiCG:  Solving for T, Initial residual = 4.57464e-05, Final residual = 6.1436e-10, No Iterations 5
 T goes from min(T) [0 0 0 0 0 0 0] -0.000858308 to max(T) [0 0 0 0 0 0 0] 0.960272

ExecutionTime = 30.89 s  ClockTime = 552 s

Time = 1.1
Courant Number mean: 1.59745 max: 4.61712
DILUPBiCG:  Solving for T, Initial residual = 0.0493806, Final residual = 7.25036e-10, No Iterations 9
DILUPBiCG:  Solving for T, Initial residual = 0.00235057, Final residual = 6.11167e-09, No Iterations 6
DILUPBiCG:  Solving for T, Initial residual = 0.000219887, Final residual = 4.03005e-09, No Iterations 5
DILUPBiCG:  Solving for T, Initial residual = 4.37652e-05, Final residual = 5.22947e-10, No Iterations 5
 T goes from min(T) [0 0 0 0 0 0 0] -0.000891027 to max(T) [0 0 0 0 0 0 0] 0.959618

ExecutionTime = 31.43 s  ClockTime = 561 s

Time = 1.125
Courant Number mean: 1.58376 max: 4.55327
DILUPBiCG:  Solving for T, Initial residual = 0.0500933, Final residual = 1.82824e-09, No Iterations 9
DILUPBiCG:  Solving for T, Initial residual = 0.00236815, Final residual = 1.53472e-09, No Iterations 7
DILUPBiCG:  Solving for T, Initial residual = 0.000216521, Final residual = 9.12291e-09, No Iterations 5
DILUPBiCG:  Solving for T, Initial residual = 4.18979e-05, Final residual = 4.43232e-10, No Iterations 5
 T goes from min(T) [0 0 0 0 0 0 0] -0.000925851 to max(T) [0 0 0 0 0 0 0] 0.95899

ExecutionTime = 31.97 s  ClockTime = 570 s

Time = 1.15
Courant Number mean: 1.57158 max: 4.48415
DILUPBiCG:  Solving for T, Initial residual = 0.0508093, Final residual = 1.83941e-09, No Iterations 9
DILUPBiCG:  Solving for T, Initial residual = 0.00239084, Final residual = 5.3074e-09, No Iterations 6
DILUPBiCG:  Solving for T, Initial residual = 0.000213942, Final residual = 5.23528e-09, No Iterations 5
DILUPBiCG:  Solving for T, Initial residual = 4.00967e-05, Final residual = 3.78347e-10, No Iterations 5
 T goes from min(T) [0 0 0 0 0 0 0] -0.00096218 to max(T) [0 0 0 0 0 0 0] 0.958144

ExecutionTime = 32.5 s  ClockTime = 579 s

Time = 1.175
Courant Number mean: 1.56088 max: 4.41174
DILUPBiCG:  Solving for T, Initial residual = 0.0515376, Final residual = 5.66552e-09, No Iterations 8
DILUPBiCG:  Solving for T, Initial residual = 0.00241582, Final residual = 2.04941e-09, No Iterations 6
DILUPBiCG:  Solving for T, Initial residual = 0.000212482, Final residual = 8.92989e-10, No Iterations 5
DILUPBiCG:  Solving for T, Initial residual = 3.8562e-05, Final residual = 7.21818e-09, No Iterations 4
 T goes from min(T) [0 0 0 0 0 0 0] -0.00226244 to max(T) [0 0 0 0 0 0 0] 0.956863

ExecutionTime = 33.04 s  ClockTime = 588 s

Time = 1.2
Courant Number mean: 1.55173 max: 4.33495
DILUPBiCG:  Solving for T, Initial residual = 0.0522507, Final residual = 1.7556e-09, No Iterations 8
DILUPBiCG:  Solving for T, Initial residual = 0.00244606, Final residual = 1.24169e-09, No Iterations 6
DILUPBiCG:  Solving for T, Initial residual = 0.000211802, Final residual = 7.21969e-09, No Iterations 4
DILUPBiCG:  Solving for T, Initial residual = 3.72773e-05, Final residual = 2.60402e-09, No Iterations 4
 T goes from min(T) [0 0 0 0 0 0 0] -0.0051973 to max(T) [0 0 0 0 0 0 0] 0.955106

ExecutionTime = 33.56 s  ClockTime = 597 s

Time = 1.225
Courant Number mean: 1.5441 max: 4.25406
DILUPBiCG:  Solving for T, Initial residual = 0.0529806, Final residual = 1.18025e-09, No Iterations 8
DILUPBiCG:  Solving for T, Initial residual = 0.00248175, Final residual = 8.87778e-10, No Iterations 6
DILUPBiCG:  Solving for T, Initial residual = 0.000211976, Final residual = 8.05368e-09, No Iterations 4
DILUPBiCG:  Solving for T, Initial residual = 3.6265e-05, Final residual = 1.0057e-09, No Iterations 4
 T goes from min(T) [0 0 0 0 0 0 0] -0.00871526 to max(T) [0 0 0 0 0 0 0] 0.953763

ExecutionTime = 34.09 s  ClockTime = 606 s

Time = 1.25
Courant Number mean: 1.53798 max: 4.17078
DILUPBiCG:  Solving for T, Initial residual = 0.0537234, Final residual = 8.60672e-10, No Iterations 8
DILUPBiCG:  Solving for T, Initial residual = 0.00252101, Final residual = 8.30524e-10, No Iterations 6
DILUPBiCG:  Solving for T, Initial residual = 0.000212903, Final residual = 8.47669e-09, No Iterations 4
DILUPBiCG:  Solving for T, Initial residual = 3.53839e-05, Final residual = 1.06798e-09, No Iterations 4
 T goes from min(T) [0 0 0 0 0 0 0] -0.0127391 to max(T) [0 0 0 0 0 0 0] 0.953561

ExecutionTime = 34.62 s  ClockTime = 615 s

Time = 1.275
Courant Number mean: 1.53337 max: 4.18348
DILUPBiCG:  Solving for T, Initial residual = 0.0544371, Final residual = 7.45539e-09, No Iterations 7
DILUPBiCG:  Solving for T, Initial residual = 0.00256422, Final residual = 9.38652e-10, No Iterations 6
DILUPBiCG:  Solving for T, Initial residual = 0.000215063, Final residual = 8.19952e-09, No Iterations 4
DILUPBiCG:  Solving for T, Initial residual = 3.48844e-05, Final residual = 1.32312e-09, No Iterations 4
 T goes from min(T) [0 0 0 0 0 0 0] -0.0169678 to max(T) [0 0 0 0 0 0 0] 0.952603

ExecutionTime = 35.14 s  ClockTime = 624 s

Time = 1.3
Courant Number mean: 1.53027 max: 4.19097
DILUPBiCG:  Solving for T, Initial residual = 0.0552062, Final residual = 5.22421e-09, No Iterations 7
DILUPBiCG:  Solving for T, Initial residual = 0.00260967, Final residual = 8.52984e-10, No Iterations 6
DILUPBiCG:  Solving for T, Initial residual = 0.000217869, Final residual = 7.42071e-09, No Iterations 4
DILUPBiCG:  Solving for T, Initial residual = 3.44978e-05, Final residual = 1.62975e-09, No Iterations 4
 T goes from min(T) [0 0 0 0 0 0 0] -0.0207999 to max(T) [0 0 0 0 0 0 0] 0.95255

ExecutionTime = 35.73 s  ClockTime = 634 s

Time = 1.325
Courant Number mean: 1.52865 max: 4.19201
DILUPBiCG:  Solving for T, Initial residual = 0.0559465, Final residual = 3.98721e-09, No Iterations 7
DILUPBiCG:  Solving for T, Initial residual = 0.00265885, Final residual = 4.93608e-09, No Iterations 5
DILUPBiCG:  Solving for T, Initial residual = 0.000221606, Final residual = 6.57414e-09, No Iterations 4
DILUPBiCG:  Solving for T, Initial residual = 3.4343e-05, Final residual = 2.09765e-09, No Iterations 4
 T goes from min(T) [0 0 0 0 0 0 0] -0.0258926 to max(T) [0 0 0 0 0 0 0] 0.951994

ExecutionTime = 36.29 s  ClockTime = 644 s

Time = 1.35
Courant Number mean: 1.52845 max: 4.18666
DILUPBiCG:  Solving for T, Initial residual = 0.0567102, Final residual = 3.35585e-09, No Iterations 7
DILUPBiCG:  Solving for T, Initial residual = 0.00270818, Final residual = 3.5759e-09, No Iterations 5
DILUPBiCG:  Solving for T, Initial residual = 0.000226426, Final residual = 5.91273e-09, No Iterations 4
DILUPBiCG:  Solving for T, Initial residual = 3.43195e-05, Final residual = 2.75651e-09, No Iterations 4
 T goes from min(T) [0 0 0 0 0 0 0] -0.0321806 to max(T) [0 0 0 0 0 0 0] 0.951106

ExecutionTime = 36.83 s  ClockTime = 653 s

Time = 1.375
Courant Number mean: 1.5296 max: 4.1763
DILUPBiCG:  Solving for T, Initial residual = 0.0574588, Final residual = 3.14077e-09, No Iterations 7
DILUPBiCG:  Solving for T, Initial residual = 0.00276468, Final residual = 3.79531e-09, No Iterations 5
DILUPBiCG:  Solving for T, Initial residual = 0.000231429, Final residual = 5.41654e-09, No Iterations 4
DILUPBiCG:  Solving for T, Initial residual = 3.45805e-05, Final residual = 2.58263e-09, No Iterations 4
 T goes from min(T) [0 0 0 0 0 0 0] -0.0373145 to max(T) [0 0 0 0 0 0 0] 0.950313

ExecutionTime = 37.36 s  ClockTime = 662 s

Time = 1.4
Courant Number mean: 1.53205 max: 4.15986
DILUPBiCG:  Solving for T, Initial residual = 0.0582406, Final residual = 3.62376e-09, No Iterations 7
DILUPBiCG:  Solving for T, Initial residual = 0.00281841, Final residual = 4.87025e-09, No Iterations 5
DILUPBiCG:  Solving for T, Initial residual = 0.000237656, Final residual = 5.00179e-09, No Iterations 4
DILUPBiCG:  Solving for T, Initial residual = 3.49177e-05, Final residual = 8.73401e-09, No Iterations 3
 T goes from min(T) [0 0 0 0 0 0 0] -0.0424466 to max(T) [0 0 0 0 0 0 0] 0.950266

ExecutionTime = 37.91 s  ClockTime = 671 s

Time = 1.425
Courant Number mean: 1.5357 max: 4.13734
DILUPBiCG:  Solving for T, Initial residual = 0.0589734, Final residual = 2.13748e-09, No Iterations 7
DILUPBiCG:  Solving for T, Initial residual = 0.00288322, Final residual = 2.57659e-10, No Iterations 6
DILUPBiCG:  Solving for T, Initial residual = 0.000244037, Final residual = 4.73923e-09, No Iterations 4
DILUPBiCG:  Solving for T, Initial residual = 3.54748e-05, Final residual = 7.6905e-09, No Iterations 3
 T goes from min(T) [0 0 0 0 0 0 0] -0.0498809 to max(T) [0 0 0 0 0 0 0] 0.951618

ExecutionTime = 38.48 s  ClockTime = 681 s

Time = 1.45
Courant Number mean: 1.54034 max: 4.10943
DILUPBiCG:  Solving for T, Initial residual = 0.0597576, Final residual = 1.14515e-09, No Iterations 7
DILUPBiCG:  Solving for T, Initial residual = 0.00294368, Final residual = 3.26508e-09, No Iterations 5
DILUPBiCG:  Solving for T, Initial residual = 0.000251398, Final residual = 4.63357e-09, No Iterations 4
DILUPBiCG:  Solving for T, Initial residual = 3.61488e-05, Final residual = 1.92374e-09, No Iterations 4
 T goes from min(T) [0 0 0 0 0 0 0] -0.0537618 to max(T) [0 0 0 0 0 0 0] 0.950072

ExecutionTime = 39.03 s  ClockTime = 690 s

Time = 1.475
Courant Number mean: 1.54584 max: 4.07659
DILUPBiCG:  Solving for T, Initial residual = 0.0605108, Final residual = 8.53703e-10, No Iterations 7
DILUPBiCG:  Solving for T, Initial residual = 0.00300977, Final residual = 5.2566e-09, No Iterations 5
DILUPBiCG:  Solving for T, Initial residual = 0.000259371, Final residual = 4.71101e-09, No Iterations 4
DILUPBiCG:  Solving for T, Initial residual = 3.69181e-05, Final residual = 5.03236e-09, No Iterations 4
 T goes from min(T) [0 0 0 0 0 0 0] -0.0620619 to max(T) [0 0 0 0 0 0 0] 0.949046

ExecutionTime = 39.57 s  ClockTime = 700 s

Time = 1.5
Courant Number mean: 1.55212 max: 4.03825
DILUPBiCG:  Solving for T, Initial residual = 0.0612799, Final residual = 8.67622e-10, No Iterations 7
DILUPBiCG:  Solving for T, Initial residual = 0.00307504, Final residual = 3.06661e-10, No Iterations 6
DILUPBiCG:  Solving for T, Initial residual = 0.000267787, Final residual = 4.79603e-09, No Iterations 4
DILUPBiCG:  Solving for T, Initial residual = 3.77804e-05, Final residual = 2.0159e-09, No Iterations 4
 T goes from min(T) [0 0 0 0 0 0 0] -0.0676716 to max(T) [0 0 0 0 0 0 0] 0.951124

ExecutionTime = 40.1 s  ClockTime = 709 s

Time = 1.525
Courant Number mean: 1.55907 max: 3.99468
DILUPBiCG:  Solving for T, Initial residual = 0.0620026, Final residual = 1.26454e-09, No Iterations 7
DILUPBiCG:  Solving for T, Initial residual = 0.00314369, Final residual = 5.55686e-09, No Iterations 5
DILUPBiCG:  Solving for T, Initial residual = 0.000277147, Final residual = 5.02633e-09, No Iterations 4
DILUPBiCG:  Solving for T, Initial residual = 3.87986e-05, Final residual = 1.09716e-09, No Iterations 4
 T goes from min(T) [0 0 0 0 0 0 0] -0.0747319 to max(T) [0 0 0 0 0 0 0] 0.94956

ExecutionTime = 40.65 s  ClockTime = 718 s

Time = 1.55
Courant Number mean: 1.56661 max: 3.9493
DILUPBiCG:  Solving for T, Initial residual = 0.0627232, Final residual = 9.58971e-09, No Iterations 6
DILUPBiCG:  Solving for T, Initial residual = 0.0032154, Final residual = 4.0038e-09, No Iterations 5
DILUPBiCG:  Solving for T, Initial residual = 0.000286227, Final residual = 5.38008e-09, No Iterations 4
DILUPBiCG:  Solving for T, Initial residual = 3.98688e-05, Final residual = 1.24441e-09, No Iterations 4
 T goes from min(T) [0 0 0 0 0 0 0] -0.0810582 to max(T) [0 0 0 0 0 0 0] 0.950629

ExecutionTime = 41.18 s  ClockTime = 727 s

Time = 1.575
Courant Number mean: 1.5746 max: 3.90225
DILUPBiCG:  Solving for T, Initial residual = 0.0635009, Final residual = 7.44345e-09, No Iterations 6
DILUPBiCG:  Solving for T, Initial residual = 0.00328406, Final residual = 3.52397e-09, No Iterations 5
DILUPBiCG:  Solving for T, Initial residual = 0.000297208, Final residual = 5.95148e-09, No Iterations 4
DILUPBiCG:  Solving for T, Initial residual = 4.12676e-05, Final residual = 1.36597e-09, No Iterations 4
 T goes from min(T) [0 0 0 0 0 0 0] -0.0880328 to max(T) [0 0 0 0 0 0 0] 0.949904

ExecutionTime = 41.71 s  ClockTime = 735 s

Time = 1.6
Courant Number mean: 1.58297 max: 3.85397
DILUPBiCG:  Solving for T, Initial residual = 0.0642249, Final residual = 8.38463e-10, No Iterations 7
DILUPBiCG:  Solving for T, Initial residual = 0.00335868, Final residual = 3.40735e-09, No Iterations 5
DILUPBiCG:  Solving for T, Initial residual = 0.000306923, Final residual = 7.3206e-09, No Iterations 4
DILUPBiCG:  Solving for T, Initial residual = 4.25922e-05, Final residual = 1.1053e-09, No Iterations 4
 T goes from min(T) [0 0 0 0 0 0 0] -0.0937593 to max(T) [0 0 0 0 0 0 0] 0.950227

ExecutionTime = 42.23 s  ClockTime = 743 s

Time = 1.625
Courant Number mean: 1.59167 max: 3.80514
DILUPBiCG:  Solving for T, Initial residual = 0.0649629, Final residual = 6.63375e-09, No Iterations 6
DILUPBiCG:  Solving for T, Initial residual = 0.00343412, Final residual = 3.50759e-09, No Iterations 5
DILUPBiCG:  Solving for T, Initial residual = 0.000318909, Final residual = 1.83731e-09, No Iterations 5
DILUPBiCG:  Solving for T, Initial residual = 4.44996e-05, Final residual = 6.77653e-10, No Iterations 4
 T goes from min(T) [0 0 0 0 0 0 0] -0.101508 to max(T) [0 0 0 0 0 0 0] 0.948683

ExecutionTime = 42.74 s  ClockTime = 752 s

Time = 1.65
Courant Number mean: 1.60067 max: 3.75484
DILUPBiCG:  Solving for T, Initial residual = 0.0656944, Final residual = 5.21346e-09, No Iterations 6
DILUPBiCG:  Solving for T, Initial residual = 0.00350469, Final residual = 3.78987e-09, No Iterations 5
DILUPBiCG:  Solving for T, Initial residual = 0.000330227, Final residual = 9.1794e-10, No Iterations 5
DILUPBiCG:  Solving for T, Initial residual = 4.64191e-05, Final residual = 9.39124e-09, No Iterations 3
 T goes from min(T) [0 0 0 0 0 0 0] -0.105444 to max(T) [0 0 0 0 0 0 0] 0.949485

ExecutionTime = 43.27 s  ClockTime = 760 s

Time = 1.675
Courant Number mean: 1.60993 max: 3.70372
DILUPBiCG:  Solving for T, Initial residual = 0.0664276, Final residual = 5.83047e-09, No Iterations 6
DILUPBiCG:  Solving for T, Initial residual = 0.00358385, Final residual = 4.21212e-09, No Iterations 5
DILUPBiCG:  Solving for T, Initial residual = 0.000342883, Final residual = 7.14453e-10, No Iterations 5
DILUPBiCG:  Solving for T, Initial residual = 4.85241e-05, Final residual = 8.94589e-09, No Iterations 3
 T goes from min(T) [0 0 0 0 0 0 0] -0.114993 to max(T) [0 0 0 0 0 0 0] 0.948538

ExecutionTime = 43.81 s  ClockTime = 768 s

Time = 1.7
Courant Number mean: 1.61942 max: 3.65186
DILUPBiCG:  Solving for T, Initial residual = 0.0671496, Final residual = 7.08737e-09, No Iterations 6
DILUPBiCG:  Solving for T, Initial residual = 0.00366171, Final residual = 4.61433e-09, No Iterations 5
DILUPBiCG:  Solving for T, Initial residual = 0.000356089, Final residual = 6.75444e-10, No Iterations 5
DILUPBiCG:  Solving for T, Initial residual = 5.1233e-05, Final residual = 8.86795e-09, No Iterations 3
 T goes from min(T) [0 0 0 0 0 0 0] -0.11951 to max(T) [0 0 0 0 0 0 0] 0.948387

ExecutionTime = 44.36 s  ClockTime = 776 s

Time = 1.725
Courant Number mean: 1.62913 max: 3.59885
DILUPBiCG:  Solving for T, Initial residual = 0.0678471, Final residual = 9.37493e-09, No Iterations 6
DILUPBiCG:  Solving for T, Initial residual = 0.00373893, Final residual = 4.74221e-09, No Iterations 5
DILUPBiCG:  Solving for T, Initial residual = 0.000369384, Final residual = 6.72675e-10, No Iterations 5
DILUPBiCG:  Solving for T, Initial residual = 5.40054e-05, Final residual = 8.85369e-09, No Iterations 3
 T goes from min(T) [0 0 0 0 0 0 0] -0.127484 to max(T) [0 0 0 0 0 0 0] 0.947623

ExecutionTime = 44.91 s  ClockTime = 784 s

Time = 1.75
Courant Number mean: 1.63905 max: 3.54567
DILUPBiCG:  Solving for T, Initial residual = 0.0685526, Final residual = 1.80476e-09, No Iterations 7
DILUPBiCG:  Solving for T, Initial residual = 0.00382702, Final residual = 5.36851e-09, No Iterations 5
DILUPBiCG:  Solving for T, Initial residual = 0.000384496, Final residual = 6.73613e-10, No Iterations 5
DILUPBiCG:  Solving for T, Initial residual = 5.73573e-05, Final residual = 8.8161e-09, No Iterations 3
 T goes from min(T) [0 0 0 0 0 0 0] -0.133155 to max(T) [0 0 0 0 0 0 0] 0.946156

ExecutionTime = 45.47 s  ClockTime = 793 s

Time = 1.775
Courant Number mean: 1.64917 max: 3.49139
DILUPBiCG:  Solving for T, Initial residual = 0.0692374, Final residual = 2.44647e-09, No Iterations 7
DILUPBiCG:  Solving for T, Initial residual = 0.00391165, Final residual = 7.86561e-09, No Iterations 5
DILUPBiCG:  Solving for T, Initial residual = 0.000400659, Final residual = 9.15312e-10, No Iterations 5
DILUPBiCG:  Solving for T, Initial residual = 6.10462e-05, Final residual = 1.6417e-09, No Iterations 4
 T goes from min(T) [0 0 0 0 0 0 0] -0.137071 to max(T) [0 0 0 0 0 0 0] 0.94655

ExecutionTime = 46 s  ClockTime = 801 s

Time = 1.8
Courant Number mean: 1.65946 max: 3.43612
DILUPBiCG:  Solving for T, Initial residual = 0.0699255, Final residual = 2.77527e-09, No Iterations 7
DILUPBiCG:  Solving for T, Initial residual = 0.00400412, Final residual = 1.17973e-09, No Iterations 6
DILUPBiCG:  Solving for T, Initial residual = 0.000416858, Final residual = 1.37637e-09, No Iterations 5
DILUPBiCG:  Solving for T, Initial residual = 6.4449e-05, Final residual = 1.73123e-09, No Iterations 4
 T goes from min(T) [0 0 0 0 0 0 0] -0.146168 to max(T) [0 0 0 0 0 0 0] 0.943625

ExecutionTime = 46.54 s  ClockTime = 809 s

Time = 1.825
Courant Number mean: 1.66989 max: 3.38019
DILUPBiCG:  Solving for T, Initial residual = 0.0705735, Final residual = 2.82879e-09, No Iterations 7
DILUPBiCG:  Solving for T, Initial residual = 0.0041013, Final residual = 1.38187e-09, No Iterations 6
DILUPBiCG:  Solving for T, Initial residual = 0.000434464, Final residual = 1.47929e-09, No Iterations 5
DILUPBiCG:  Solving for T, Initial residual = 6.81787e-05, Final residual = 2.1142e-09, No Iterations 4
 T goes from min(T) [0 0 0 0 0 0 0] -0.150655 to max(T) [0 0 0 0 0 0 0] 0.944097

ExecutionTime = 47.09 s  ClockTime = 817 s

Time = 1.85
Courant Number mean: 1.68042 max: 3.32402
DILUPBiCG:  Solving for T, Initial residual = 0.0712585, Final residual = 2.56148e-09, No Iterations 7
DILUPBiCG:  Solving for T, Initial residual = 0.00418557, Final residual = 1.30499e-09, No Iterations 6
DILUPBiCG:  Solving for T, Initial residual = 0.000449436, Final residual = 1.52492e-09, No Iterations 5
DILUPBiCG:  Solving for T, Initial residual = 7.23038e-05, Final residual = 2.38527e-09, No Iterations 4
 T goes from min(T) [0 0 0 0 0 0 0] -0.155641 to max(T) [0 0 0 0 0 0 0] 0.942496

ExecutionTime = 47.63 s  ClockTime = 825 s

Time = 1.875
Courant Number mean: 1.69102 max: 3.26709
DILUPBiCG:  Solving for T, Initial residual = 0.0718588, Final residual = 2.9149e-09, No Iterations 7
DILUPBiCG:  Solving for T, Initial residual = 0.00428202, Final residual = 1.61389e-09, No Iterations 6
DILUPBiCG:  Solving for T, Initial residual = 0.000470992, Final residual = 1.99535e-09, No Iterations 5
DILUPBiCG:  Solving for T, Initial residual = 7.79521e-05, Final residual = 4.15338e-10, No Iterations 5
 T goes from min(T) [0 0 0 0 0 0 0] -0.163123 to max(T) [0 0 0 0 0 0 0] 0.94253

ExecutionTime = 48.2 s  ClockTime = 834 s

Time = 1.9
Courant Number mean: 1.70161 max: 3.21018
DILUPBiCG:  Solving for T, Initial residual = 0.0724346, Final residual = 4.1431e-09, No Iterations 7
DILUPBiCG:  Solving for T, Initial residual = 0.00439767, Final residual = 4.85618e-09, No Iterations 6
DILUPBiCG:  Solving for T, Initial residual = 0.000495933, Final residual = 2.48872e-09, No Iterations 5
DILUPBiCG:  Solving for T, Initial residual = 8.3954e-05, Final residual = 5.62155e-10, No Iterations 5
 T goes from min(T) [0 0 0 0 0 0 0] -0.167209 to max(T) [0 0 0 0 0 0 0] 0.94181

ExecutionTime = 48.75 s  ClockTime = 842 s

Time = 1.925
Courant Number mean: 1.7121 max: 3.15279
DILUPBiCG:  Solving for T, Initial residual = 0.0730666, Final residual = 8.24373e-09, No Iterations 7
DILUPBiCG:  Solving for T, Initial residual = 0.00449439, Final residual = 2.77237e-09, No Iterations 6
DILUPBiCG:  Solving for T, Initial residual = 0.000516317, Final residual = 2.80974e-09, No Iterations 5
DILUPBiCG:  Solving for T, Initial residual = 8.91584e-05, Final residual = 3.43494e-09, No Iterations 5
 T goes from min(T) [0 0 0 0 0 0 0] -0.171679 to max(T) [0 0 0 0 0 0 0] 0.939903

ExecutionTime = 49.29 s  ClockTime = 850 s

Time = 1.95
Courant Number mean: 1.72236 max: 3.09489
DILUPBiCG:  Solving for T, Initial residual = 0.0735774, Final residual = 4.43893e-09, No Iterations 7
DILUPBiCG:  Solving for T, Initial residual = 0.00459507, Final residual = 2.4098e-09, No Iterations 6
DILUPBiCG:  Solving for T, Initial residual = 0.000538935, Final residual = 3.16583e-09, No Iterations 5
DILUPBiCG:  Solving for T, Initial residual = 9.50955e-05, Final residual = 9.50902e-09, No Iterations 4
 T goes from min(T) [0 0 0 0 0 0 0] -0.17881 to max(T) [0 0 0 0 0 0 0] 0.937979

ExecutionTime = 49.85 s  ClockTime = 859 s

Time = 1.975
Courant Number mean: 1.732 max: 3.03657
DILUPBiCG:  Solving for T, Initial residual = 0.0740681, Final residual = 3.51946e-09, No Iterations 7
DILUPBiCG:  Solving for T, Initial residual = 0.00470631, Final residual = 2.59628e-09, No Iterations 6
DILUPBiCG:  Solving for T, Initial residual = 0.000564911, Final residual = 2.74084e-09, No Iterations 5
DILUPBiCG:  Solving for T, Initial residual = 0.000100857, Final residual = 1.04019e-09, No Iterations 5
 T goes from min(T) [0 0 0 0 0 0 0] -0.183285 to max(T) [0 0 0 0 0 0 0] 0.937497

ExecutionTime = 50.41 s  ClockTime = 867 s

Time = 2
Courant Number mean: 1.7405 max: 2.97819
DILUPBiCG:  Solving for T, Initial residual = 0.074595, Final residual = 3.40702e-09, No Iterations 7
DILUPBiCG:  Solving for T, Initial residual = 0.0048051, Final residual = 3.42056e-10, No Iterations 7
DILUPBiCG:  Solving for T, Initial residual = 0.000586848, Final residual = 4.20819e-09, No Iterations 5
DILUPBiCG:  Solving for T, Initial residual = 0.000106705, Final residual = 1.10863e-09, No Iterations 5
 T goes from min(T) [0 0 0 0 0 0 0] -0.187138 to max(T) [0 0 0 0 0 0 0] 0.936498

ExecutionTime = 50.97 s  ClockTime = 875 s

Time = 2.025
Courant Number mean: 1.74775 max: 2.92002
DILUPBiCG:  Solving for T, Initial residual = 0.0750386, Final residual = 3.21823e-09, No Iterations 7
DILUPBiCG:  Solving for T, Initial residual = 0.00488253, Final residual = 3.15268e-09, No Iterations 6
DILUPBiCG:  Solving for T, Initial residual = 0.000605969, Final residual = 4.24109e-09, No Iterations 5
DILUPBiCG:  Solving for T, Initial residual = 0.000110542, Final residual = 8.70117e-10, No Iterations 5
 T goes from min(T) [0 0 0 0 0 0 0] -0.195589 to max(T) [0 0 0 0 0 0 0] 0.933836

ExecutionTime = 51.51 s  ClockTime = 884 s

Time = 2.05
Courant Number mean: 1.75374 max: 2.86168
DILUPBiCG:  Solving for T, Initial residual = 0.0754115, Final residual = 2.88987e-09, No Iterations 7
DILUPBiCG:  Solving for T, Initial residual = 0.00496259, Final residual = 2.98577e-09, No Iterations 6
DILUPBiCG:  Solving for T, Initial residual = 0.000626049, Final residual = 3.86353e-09, No Iterations 5
DILUPBiCG:  Solving for T, Initial residual = 0.000114308, Final residual = 9.02344e-09, No Iterations 4
 T goes from min(T) [0 0 0 0 0 0 0] -0.200457 to max(T) [0 0 0 0 0 0 0] 0.930095

ExecutionTime = 52.05 s  ClockTime = 892 s

Time = 2.075
Courant Number mean: 1.75848 max: 2.80326
DILUPBiCG:  Solving for T, Initial residual = 0.0758708, Final residual = 2.75178e-09, No Iterations 7
DILUPBiCG:  Solving for T, Initial residual = 0.00503234, Final residual = 2.69177e-09, No Iterations 6
DILUPBiCG:  Solving for T, Initial residual = 0.000640338, Final residual = 2.83341e-09, No Iterations 5
DILUPBiCG:  Solving for T, Initial residual = 0.000117467, Final residual = 8.14592e-09, No Iterations 4
 T goes from min(T) [0 0 0 0 0 0 0] -0.203846 to max(T) [0 0 0 0 0 0 0] 0.927241

ExecutionTime = 52.59 s  ClockTime = 900 s

Time = 2.1
Courant Number mean: 1.76197 max: 2.7449
DILUPBiCG:  Solving for T, Initial residual = 0.0763021, Final residual = 2.63143e-09, No Iterations 7
DILUPBiCG:  Solving for T, Initial residual = 0.00507797, Final residual = 1.92661e-09, No Iterations 6
DILUPBiCG:  Solving for T, Initial residual = 0.000648159, Final residual = 2.69071e-09, No Iterations 5
DILUPBiCG:  Solving for T, Initial residual = 0.000118367, Final residual = 7.1927e-09, No Iterations 4
 T goes from min(T) [0 0 0 0 0 0 0] -0.207118 to max(T) [0 0 0 0 0 0 0] 0.921115

ExecutionTime = 53.14 s  ClockTime = 908 s

Time = 2.125
Courant Number mean: 1.76422 max: 2.68721
DILUPBiCG:  Solving for T, Initial residual = 0.0766422, Final residual = 2.46847e-09, No Iterations 7
DILUPBiCG:  Solving for T, Initial residual = 0.00510922, Final residual = 1.76935e-09, No Iterations 6
DILUPBiCG:  Solving for T, Initial residual = 0.000652948, Final residual = 2.31332e-09, No Iterations 5
DILUPBiCG:  Solving for T, Initial residual = 0.000117821, Final residual = 3.01777e-09, No Iterations 5
 T goes from min(T) [0 0 0 0 0 0 0] -0.214522 to max(T) [0 0 0 0 0 0 0] 0.917897

ExecutionTime = 53.71 s  ClockTime = 917 s

Time = 2.15
Courant Number mean: 1.76527 max: 2.62967
DILUPBiCG:  Solving for T, Initial residual = 0.076959, Final residual = 2.26109e-09, No Iterations 7
DILUPBiCG:  Solving for T, Initial residual = 0.00514354, Final residual = 2.21864e-09, No Iterations 6
DILUPBiCG:  Solving for T, Initial residual = 0.000656398, Final residual = 8.58807e-09, No Iterations 5
DILUPBiCG:  Solving for T, Initial residual = 0.000117459, Final residual = 3.88759e-09, No Iterations 5
 T goes from min(T) [0 0 0 0 0 0 0] -0.219086 to max(T) [0 0 0 0 0 0 0] 0.914469

ExecutionTime = 54.25 s  ClockTime = 925 s

Time = 2.175
Courant Number mean: 1.76513 max: 2.57238
DILUPBiCG:  Solving for T, Initial residual = 0.0773673, Final residual = 2.02896e-09, No Iterations 7
DILUPBiCG:  Solving for T, Initial residual = 0.00516599, Final residual = 2.32348e-09, No Iterations 6
DILUPBiCG:  Solving for T, Initial residual = 0.00065481, Final residual = 1.78942e-09, No Iterations 5
DILUPBiCG:  Solving for T, Initial residual = 0.000116024, Final residual = 4.70766e-10, No Iterations 5
 T goes from min(T) [0 0 0 0 0 0 0] -0.222391 to max(T) [0 0 0 0 0 0 0] 0.910685

ExecutionTime = 54.8 s  ClockTime = 933 s

Time = 2.2
Courant Number mean: 1.76387 max: 2.5155
DILUPBiCG:  Solving for T, Initial residual = 0.0777594, Final residual = 1.81901e-09, No Iterations 7
DILUPBiCG:  Solving for T, Initial residual = 0.00516753, Final residual = 1.87952e-09, No Iterations 6
DILUPBiCG:  Solving for T, Initial residual = 0.000650305, Final residual = 2.14062e-09, No Iterations 5
DILUPBiCG:  Solving for T, Initial residual = 0.000113809, Final residual = 4.89653e-10, No Iterations 5
 T goes from min(T) [0 0 0 0 0 0 0] -0.22515 to max(T) [0 0 0 0 0 0 0] 0.908212

ExecutionTime = 55.34 s  ClockTime = 941 s

Time = 2.225
Courant Number mean: 1.76153 max: 2.45947
DILUPBiCG:  Solving for T, Initial residual = 0.0780934, Final residual = 1.66622e-09, No Iterations 7
DILUPBiCG:  Solving for T, Initial residual = 0.0051604, Final residual = 1.48627e-09, No Iterations 6
DILUPBiCG:  Solving for T, Initial residual = 0.00064425, Final residual = 2.00504e-09, No Iterations 5
DILUPBiCG:  Solving for T, Initial residual = 0.000111392, Final residual = 3.44173e-10, No Iterations 5
 T goes from min(T) [0 0 0 0 0 0 0] -0.229844 to max(T) [0 0 0 0 0 0 0] 0.905393

ExecutionTime = 55.88 s  ClockTime = 949 s

Time = 2.25
Courant Number mean: 1.75816 max: 2.40407
DILUPBiCG:  Solving for T, Initial residual = 0.0783625, Final residual = 1.5295e-09, No Iterations 7
DILUPBiCG:  Solving for T, Initial residual = 0.00516149, Final residual = 1.34325e-09, No Iterations 6
DILUPBiCG:  Solving for T, Initial residual = 0.000637444, Final residual = 1.63337e-09, No Iterations 5
DILUPBiCG:  Solving for T, Initial residual = 0.00010879, Final residual = 2.59786e-10, No Iterations 5
 T goes from min(T) [0 0 0 0 0 0 0] -0.234789 to max(T) [0 0 0 0 0 0 0] 0.902419

ExecutionTime = 56.42 s  ClockTime = 957 s

Time = 2.275
Courant Number mean: 1.75385 max: 2.34974
DILUPBiCG:  Solving for T, Initial residual = 0.0787247, Final residual = 1.36145e-09, No Iterations 7
DILUPBiCG:  Solving for T, Initial residual = 0.00516428, Final residual = 9.82567e-09, No Iterations 5
DILUPBiCG:  Solving for T, Initial residual = 0.000630662, Final residual = 1.37874e-09, No Iterations 5
DILUPBiCG:  Solving for T, Initial residual = 0.000106121, Final residual = 2.31243e-10, No Iterations 5
 T goes from min(T) [0 0 0 0 0 0 0] -0.238222 to max(T) [0 0 0 0 0 0 0] 0.899482

ExecutionTime = 56.94 s  ClockTime = 965 s

Time = 2.3
Courant Number mean: 1.74865 max: 2.29605
DILUPBiCG:  Solving for T, Initial residual = 0.0790466, Final residual = 1.23356e-09, No Iterations 7
DILUPBiCG:  Solving for T, Initial residual = 0.00515488, Final residual = 8.91349e-09, No Iterations 5
DILUPBiCG:  Solving for T, Initial residual = 0.000623758, Final residual = 1.24793e-09, No Iterations 5
DILUPBiCG:  Solving for T, Initial residual = 0.000103612, Final residual = 9.43958e-09, No Iterations 4
 T goes from min(T) [0 0 0 0 0 0 0] -0.241006 to max(T) [0 0 0 0 0 0 0] 0.895611

ExecutionTime = 57.5 s  ClockTime = 973 s

Time = 2.325
Courant Number mean: 1.74266 max: 2.24381
DILUPBiCG:  Solving for T, Initial residual = 0.0792781, Final residual = 1.13912e-09, No Iterations 7
DILUPBiCG:  Solving for T, Initial residual = 0.00514118, Final residual = 8.10223e-09, No Iterations 5
DILUPBiCG:  Solving for T, Initial residual = 0.000616606, Final residual = 1.10225e-09, No Iterations 5
DILUPBiCG:  Solving for T, Initial residual = 0.000101135, Final residual = 9.45391e-09, No Iterations 4
 T goes from min(T) [0 0 0 0 0 0 0] -0.242978 to max(T) [0 0 0 0 0 0 0] 0.890521

ExecutionTime = 58.04 s  ClockTime = 982 s

Time = 2.35
Courant Number mean: 1.73595 max: 2.19254
DILUPBiCG:  Solving for T, Initial residual = 0.0795063, Final residual = 1.04933e-09, No Iterations 7
DILUPBiCG:  Solving for T, Initial residual = 0.00512728, Final residual = 7.26367e-09, No Iterations 5
DILUPBiCG:  Solving for T, Initial residual = 0.000609106, Final residual = 9.73619e-10, No Iterations 5
DILUPBiCG:  Solving for T, Initial residual = 9.8654e-05, Final residual = 9.53426e-09, No Iterations 4
 T goes from min(T) [0 0 0 0 0 0 0] -0.246532 to max(T) [0 0 0 0 0 0 0] 0.884252

ExecutionTime = 58.58 s  ClockTime = 990 s

Time = 2.375
Courant Number mean: 1.72863 max: 2.14294
DILUPBiCG:  Solving for T, Initial residual = 0.079687, Final residual = 9.69256e-09, No Iterations 6
DILUPBiCG:  Solving for T, Initial residual = 0.00512027, Final residual = 6.49126e-09, No Iterations 5
DILUPBiCG:  Solving for T, Initial residual = 0.000601604, Final residual = 8.538e-10, No Iterations 5
DILUPBiCG:  Solving for T, Initial residual = 9.62728e-05, Final residual = 1.32927e-10, No Iterations 5
 T goes from min(T) [0 0 0 0 0 0 0] -0.251037 to max(T) [0 0 0 0 0 0 0] 0.884039

ExecutionTime = 59.14 s  ClockTime = 998 s

Time = 2.4
Courant Number mean: 1.72078 max: 2.09491
DILUPBiCG:  Solving for T, Initial residual = 0.0799141, Final residual = 8.2721e-09, No Iterations 6
DILUPBiCG:  Solving for T, Initial residual = 0.00511075, Final residual = 5.80906e-09, No Iterations 5
DILUPBiCG:  Solving for T, Initial residual = 0.00059441, Final residual = 7.33899e-10, No Iterations 5
DILUPBiCG:  Solving for T, Initial residual = 9.38058e-05, Final residual = 1.13865e-10, No Iterations 5
 T goes from min(T) [0 0 0 0 0 0 0] -0.254211 to max(T) [0 0 0 0 0 0 0] 0.885137

ExecutionTime = 59.71 s  ClockTime = 1006 s

Time = 2.425
Courant Number mean: 1.71251 max: 2.04864
DILUPBiCG:  Solving for T, Initial residual = 0.0801571, Final residual = 9.93163e-09, No Iterations 6
DILUPBiCG:  Solving for T, Initial residual = 0.00510272, Final residual = 5.21492e-09, No Iterations 5
DILUPBiCG:  Solving for T, Initial residual = 0.000587515, Final residual = 6.349e-10, No Iterations 5
DILUPBiCG:  Solving for T, Initial residual = 9.16132e-05, Final residual = 9.00394e-09, No Iterations 4
 T goes from min(T) [0 0 0 0 0 0 0] -0.256647 to max(T) [0 0 0 0 0 0 0] 0.885301

ExecutionTime = 60.25 s  ClockTime = 1014 s

Time = 2.45
Courant Number mean: 1.70392 max: 2.00442
DILUPBiCG:  Solving for T, Initial residual = 0.0803952, Final residual = 7.01856e-09, No Iterations 6
DILUPBiCG:  Solving for T, Initial residual = 0.00508698, Final residual = 4.66858e-09, No Iterations 5
DILUPBiCG:  Solving for T, Initial residual = 0.000580547, Final residual = 5.77781e-10, No Iterations 5
DILUPBiCG:  Solving for T, Initial residual = 8.96794e-05, Final residual = 5.42404e-09, No Iterations 4
 T goes from min(T) [0 0 0 0 0 0 0] -0.258314 to max(T) [0 0 0 0 0 0 0] 0.885265

ExecutionTime = 60.8 s  ClockTime = 1021 s

Time = 2.475
Courant Number mean: 1.69511 max: 1.97956
DILUPBiCG:  Solving for T, Initial residual = 0.0805767, Final residual = 5.88552e-09, No Iterations 6
DILUPBiCG:  Solving for T, Initial residual = 0.00506755, Final residual = 4.17398e-09, No Iterations 5
DILUPBiCG:  Solving for T, Initial residual = 0.0005736, Final residual = 8.58143e-09, No Iterations 4
DILUPBiCG:  Solving for T, Initial residual = 8.78889e-05, Final residual = 3.39606e-09, No Iterations 4
 T goes from min(T) [0 0 0 0 0 0 0] -0.26021 to max(T) [0 0 0 0 0 0 0] 0.883124

ExecutionTime = 61.35 s  ClockTime = 1029 s

Time = 2.5
Courant Number mean: 1.6862 max: 1.97703
DILUPBiCG:  Solving for T, Initial residual = 0.0807302, Final residual = 3.44937e-09, No Iterations 6
DILUPBiCG:  Solving for T, Initial residual = 0.00504766, Final residual = 3.5553e-09, No Iterations 5
DILUPBiCG:  Solving for T, Initial residual = 0.000566698, Final residual = 6.4557e-09, No Iterations 4
DILUPBiCG:  Solving for T, Initial residual = 8.61801e-05, Final residual = 1.21579e-10, No Iterations 5
 T goes from min(T) [0 0 0 0 0 0 0] -0.262294 to max(T) [0 0 0 0 0 0 0] 0.878168

ExecutionTime = 61.88 s  ClockTime = 1036 s

Time = 2.525
Courant Number mean: 1.67728 max: 2.02583
DILUPBiCG:  Solving for T, Initial residual = 0.0808334, Final residual = 3.84542e-09, No Iterations 6
DILUPBiCG:  Solving for T, Initial residual = 0.00502667, Final residual = 2.89419e-09, No Iterations 5
DILUPBiCG:  Solving for T, Initial residual = 0.000559947, Final residual = 5.47947e-09, No Iterations 4
DILUPBiCG:  Solving for T, Initial residual = 8.4497e-05, Final residual = 8.83273e-10, No Iterations 4
 T goes from min(T) [0 0 0 0 0 0 0] -0.266538 to max(T) [0 0 0 0 0 0 0] 0.876501

ExecutionTime = 62.44 s  ClockTime = 1044 s

Time = 2.55
Courant Number mean: 1.66848 max: 2.07705
DILUPBiCG:  Solving for T, Initial residual = 0.0809334, Final residual = 4.56819e-09, No Iterations 6
DILUPBiCG:  Solving for T, Initial residual = 0.00501359, Final residual = 2.4694e-09, No Iterations 5
DILUPBiCG:  Solving for T, Initial residual = 0.000553644, Final residual = 4.82419e-09, No Iterations 4
DILUPBiCG:  Solving for T, Initial residual = 8.28558e-05, Final residual = 7.69981e-10, No Iterations 4
 T goes from min(T) [0 0 0 0 0 0 0] -0.269458 to max(T) [0 0 0 0 0 0 0] 0.877495

ExecutionTime = 63 s  ClockTime = 1052 s

Time = 2.575
Courant Number mean: 1.65988 max: 2.12982
DILUPBiCG:  Solving for T, Initial residual = 0.0810129, Final residual = 5.1765e-09, No Iterations 6
DILUPBiCG:  Solving for T, Initial residual = 0.00499881, Final residual = 2.14839e-09, No Iterations 5
DILUPBiCG:  Solving for T, Initial residual = 0.000547755, Final residual = 4.22229e-09, No Iterations 4
DILUPBiCG:  Solving for T, Initial residual = 8.13192e-05, Final residual = 6.84885e-10, No Iterations 4
 T goes from min(T) [0 0 0 0 0 0 0] -0.271462 to max(T) [0 0 0 0 0 0 0] 0.877681

ExecutionTime = 63.58 s  ClockTime = 1060 s

Time = 2.6
Courant Number mean: 1.65161 max: 2.18408
DILUPBiCG:  Solving for T, Initial residual = 0.0810568, Final residual = 5.28997e-09, No Iterations 6
DILUPBiCG:  Solving for T, Initial residual = 0.00497716, Final residual = 1.96364e-09, No Iterations 5
DILUPBiCG:  Solving for T, Initial residual = 0.000542454, Final residual = 3.73256e-09, No Iterations 4
DILUPBiCG:  Solving for T, Initial residual = 8.00002e-05, Final residual = 6.4025e-10, No Iterations 4
 T goes from min(T) [0 0 0 0 0 0 0] -0.27305 to max(T) [0 0 0 0 0 0 0] 0.876304

ExecutionTime = 64.14 s  ClockTime = 1068 s

Time = 2.625
Courant Number mean: 1.64376 max: 2.23926
DILUPBiCG:  Solving for T, Initial residual = 0.0811397, Final residual = 4.97087e-09, No Iterations 6
DILUPBiCG:  Solving for T, Initial residual = 0.00495779, Final residual = 1.9715e-09, No Iterations 5
DILUPBiCG:  Solving for T, Initial residual = 0.000537169, Final residual = 3.52763e-09, No Iterations 4
DILUPBiCG:  Solving for T, Initial residual = 7.87972e-05, Final residual = 6.65083e-10, No Iterations 4
 T goes from min(T) [0 0 0 0 0 0 0] -0.274051 to max(T) [0 0 0 0 0 0 0] 0.871424

ExecutionTime = 64.7 s  ClockTime = 1076 s

Time = 2.65
Courant Number mean: 1.63644 max: 2.29533
DILUPBiCG:  Solving for T, Initial residual = 0.0811921, Final residual = 4.31259e-09, No Iterations 6
DILUPBiCG:  Solving for T, Initial residual = 0.00493641, Final residual = 2.13468e-09, No Iterations 5
DILUPBiCG:  Solving for T, Initial residual = 0.000532071, Final residual = 3.95401e-09, No Iterations 4
DILUPBiCG:  Solving for T, Initial residual = 7.78042e-05, Final residual = 8.32282e-10, No Iterations 4
 T goes from min(T) [0 0 0 0 0 0 0] -0.275093 to max(T) [0 0 0 0 0 0 0] 0.87264

ExecutionTime = 65.24 s  ClockTime = 1083 s

Time = 2.675
Courant Number mean: 1.62974 max: 2.35159
DILUPBiCG:  Solving for T, Initial residual = 0.0812063, Final residual = 3.69147e-09, No Iterations 6
DILUPBiCG:  Solving for T, Initial residual = 0.00491346, Final residual = 1.9228e-09, No Iterations 5
DILUPBiCG:  Solving for T, Initial residual = 0.000527524, Final residual = 9.06017e-09, No Iterations 4
DILUPBiCG:  Solving for T, Initial residual = 7.69418e-05, Final residual = 9.5075e-09, No Iterations 3
 T goes from min(T) [0 0 0 0 0 0 0] -0.275881 to max(T) [0 0 0 0 0 0 0] 0.873463

ExecutionTime = 65.78 s  ClockTime = 1090 s

Time = 2.7
Courant Number mean: 1.62374 max: 2.40812
DILUPBiCG:  Solving for T, Initial residual = 0.081166, Final residual = 3.46193e-09, No Iterations 6
DILUPBiCG:  Solving for T, Initial residual = 0.00488986, Final residual = 1.89213e-09, No Iterations 5
DILUPBiCG:  Solving for T, Initial residual = 0.000523207, Final residual = 9.18203e-09, No Iterations 4
DILUPBiCG:  Solving for T, Initial residual = 7.61531e-05, Final residual = 8.35266e-09, No Iterations 3
 T goes from min(T) [0 0 0 0 0 0 0] -0.276429 to max(T) [0 0 0 0 0 0 0] 0.872004

ExecutionTime = 66.32 s  ClockTime = 1097 s

Time = 2.725
Courant Number mean: 1.61855 max: 2.46419
DILUPBiCG:  Solving for T, Initial residual = 0.081157, Final residual = 3.454e-09, No Iterations 6
DILUPBiCG:  Solving for T, Initial residual = 0.00486807, Final residual = 1.96705e-09, No Iterations 5
DILUPBiCG:  Solving for T, Initial residual = 0.0005192, Final residual = 3.94921e-09, No Iterations 4
DILUPBiCG:  Solving for T, Initial residual = 7.5561e-05, Final residual = 7.47219e-09, No Iterations 3
 T goes from min(T) [0 0 0 0 0 0 0] -0.279729 to max(T) [0 0 0 0 0 0 0] 0.86845

ExecutionTime = 66.86 s  ClockTime = 1105 s

Time = 2.75
Courant Number mean: 1.61423 max: 2.51958
DILUPBiCG:  Solving for T, Initial residual = 0.0811317, Final residual = 3.49287e-09, No Iterations 6
DILUPBiCG:  Solving for T, Initial residual = 0.00484576, Final residual = 1.88879e-09, No Iterations 5
DILUPBiCG:  Solving for T, Initial residual = 0.000515183, Final residual = 3.3878e-09, No Iterations 4
DILUPBiCG:  Solving for T, Initial residual = 7.49991e-05, Final residual = 8.73159e-09, No Iterations 3
 T goes from min(T) [0 0 0 0 0 0 0] -0.283002 to max(T) [0 0 0 0 0 0 0] 0.870614

ExecutionTime = 67.41 s  ClockTime = 1112 s

Time = 2.775
Courant Number mean: 1.61087 max: 2.57411
DILUPBiCG:  Solving for T, Initial residual = 0.081027, Final residual = 4.03822e-09, No Iterations 6
DILUPBiCG:  Solving for T, Initial residual = 0.00482124, Final residual = 1.91636e-09, No Iterations 5
DILUPBiCG:  Solving for T, Initial residual = 0.000511529, Final residual = 3.39669e-09, No Iterations 4
DILUPBiCG:  Solving for T, Initial residual = 7.45248e-05, Final residual = 9.97754e-09, No Iterations 3
 T goes from min(T) [0 0 0 0 0 0 0] -0.285489 to max(T) [0 0 0 0 0 0 0] 0.870616

ExecutionTime = 67.96 s  ClockTime = 1119 s

Time = 2.8
Courant Number mean: 1.60852 max: 2.62707
DILUPBiCG:  Solving for T, Initial residual = 0.0808764, Final residual = 6.19761e-09, No Iterations 6
DILUPBiCG:  Solving for T, Initial residual = 0.00479281, Final residual = 2.22361e-09, No Iterations 5
DILUPBiCG:  Solving for T, Initial residual = 0.000508224, Final residual = 3.6652e-09, No Iterations 4
DILUPBiCG:  Solving for T, Initial residual = 7.41062e-05, Final residual = 8.42718e-10, No Iterations 4
 T goes from min(T) [0 0 0 0 0 0 0] -0.287533 to max(T) [0 0 0 0 0 0 0] 0.866058

ExecutionTime = 68.5 s  ClockTime = 1126 s

Time = 2.825
Courant Number mean: 1.60726 max: 2.67984
DILUPBiCG:  Solving for T, Initial residual = 0.0807656, Final residual = 5.49064e-10, No Iterations 7
DILUPBiCG:  Solving for T, Initial residual = 0.00476624, Final residual = 2.39655e-09, No Iterations 5
DILUPBiCG:  Solving for T, Initial residual = 0.000505229, Final residual = 4.1785e-09, No Iterations 4
DILUPBiCG:  Solving for T, Initial residual = 7.38692e-05, Final residual = 1.24203e-09, No Iterations 4
 T goes from min(T) [0 0 0 0 0 0 0] -0.289159 to max(T) [0 0 0 0 0 0 0] 0.868708

ExecutionTime = 69.05 s  ClockTime = 1133 s

Time = 2.85
Courant Number mean: 1.60713 max: 2.7323
DILUPBiCG:  Solving for T, Initial residual = 0.0806549, Final residual = 7.59821e-10, No Iterations 7
DILUPBiCG:  Solving for T, Initial residual = 0.00473922, Final residual = 2.60352e-09, No Iterations 5
DILUPBiCG:  Solving for T, Initial residual = 0.000502901, Final residual = 5.05293e-09, No Iterations 4
DILUPBiCG:  Solving for T, Initial residual = 7.38023e-05, Final residual = 2.4343e-09, No Iterations 4
 T goes from min(T) [0 0 0 0 0 0 0] -0.290577 to max(T) [0 0 0 0 0 0 0] 0.869323

ExecutionTime = 69.6 s  ClockTime = 1140 s

Time = 2.875
Courant Number mean: 1.60817 max: 2.78436
DILUPBiCG:  Solving for T, Initial residual = 0.0805096, Final residual = 8.46529e-09, No Iterations 6
DILUPBiCG:  Solving for T, Initial residual = 0.00471171, Final residual = 3.11746e-09, No Iterations 5
DILUPBiCG:  Solving for T, Initial residual = 0.00049996, Final residual = 6.24737e-09, No Iterations 4
DILUPBiCG:  Solving for T, Initial residual = 7.37816e-05, Final residual = 1.27594e-10, No Iterations 5
 T goes from min(T) [0 0 0 0 0 0 0] -0.291911 to max(T) [0 0 0 0 0 0 0] 0.866059

ExecutionTime = 70.14 s  ClockTime = 1147 s

Time = 2.9
Courant Number mean: 1.61042 max: 2.83591
DILUPBiCG:  Solving for T, Initial residual = 0.0803196, Final residual = 1.23385e-09, No Iterations 7
DILUPBiCG:  Solving for T, Initial residual = 0.00468179, Final residual = 3.70084e-09, No Iterations 5
DILUPBiCG:  Solving for T, Initial residual = 0.000497602, Final residual = 8.14475e-09, No Iterations 4
DILUPBiCG:  Solving for T, Initial residual = 7.38416e-05, Final residual = 3.48923e-09, No Iterations 4
 T goes from min(T) [0 0 0 0 0 0 0] -0.293217 to max(T) [0 0 0 0 0 0 0] 0.868215

ExecutionTime = 70.67 s  ClockTime = 1154 s

Time = 2.925
Courant Number mean: 1.61391 max: 2.88683
DILUPBiCG:  Solving for T, Initial residual = 0.0800959, Final residual = 1.59069e-09, No Iterations 7
DILUPBiCG:  Solving for T, Initial residual = 0.00465237, Final residual = 4.38799e-09, No Iterations 5
DILUPBiCG:  Solving for T, Initial residual = 0.000495016, Final residual = 7.21051e-10, No Iterations 5
DILUPBiCG:  Solving for T, Initial residual = 7.39874e-05, Final residual = 2.57267e-09, No Iterations 4
 T goes from min(T) [0 0 0 0 0 0 0] -0.294443 to max(T) [0 0 0 0 0 0 0] 0.867238

ExecutionTime = 71.23 s  ClockTime = 1161 s

Time = 2.95
Courant Number mean: 1.61865 max: 2.93704
DILUPBiCG:  Solving for T, Initial residual = 0.0798845, Final residual = 2.16231e-09, No Iterations 7
DILUPBiCG:  Solving for T, Initial residual = 0.00462018, Final residual = 5.25665e-09, No Iterations 5
DILUPBiCG:  Solving for T, Initial residual = 0.000492991, Final residual = 7.91378e-10, No Iterations 5
DILUPBiCG:  Solving for T, Initial residual = 7.42537e-05, Final residual = 2.62219e-09, No Iterations 4
 T goes from min(T) [0 0 0 0 0 0 0] -0.295433 to max(T) [0 0 0 0 0 0 0] 0.866624

ExecutionTime = 71.78 s  ClockTime = 1168 s

Time = 2.975
Courant Number mean: 1.62464 max: 2.9867
DILUPBiCG:  Solving for T, Initial residual = 0.0796674, Final residual = 3.21777e-09, No Iterations 7
DILUPBiCG:  Solving for T, Initial residual = 0.00459112, Final residual = 6.32693e-09, No Iterations 5
DILUPBiCG:  Solving for T, Initial residual = 0.000491294, Final residual = 9.55288e-10, No Iterations 5
DILUPBiCG:  Solving for T, Initial residual = 7.46349e-05, Final residual = 2.91694e-09, No Iterations 4
 T goes from min(T) [0 0 0 0 0 0 0] -0.296426 to max(T) [0 0 0 0 0 0 0] 0.867949

ExecutionTime = 72.31 s  ClockTime = 1175 s

Time = 3
Courant Number mean: 1.63202 max: 3.03577
DILUPBiCG:  Solving for T, Initial residual = 0.0794001, Final residual = 4.98297e-09, No Iterations 7
DILUPBiCG:  Solving for T, Initial residual = 0.00456185, Final residual = 7.52543e-09, No Iterations 5
DILUPBiCG:  Solving for T, Initial residual = 0.000490039, Final residual = 1.36921e-09, No Iterations 5
DILUPBiCG:  Solving for T, Initial residual = 7.49621e-05, Final residual = 3.32864e-09, No Iterations 4
 T goes from min(T) [0 0 0 0 0 0 0] -0.296968 to max(T) [0 0 0 0 0 0 0] 0.86483

ExecutionTime = 72.85 s  ClockTime = 1182 s

Time = 3.025
Courant Number mean: 1.64082 max: 3.08391
DILUPBiCG:  Solving for T, Initial residual = 0.0790734, Final residual = 7.71634e-09, No Iterations 7
DILUPBiCG:  Solving for T, Initial residual = 0.00452976, Final residual = 8.70426e-09, No Iterations 5
DILUPBiCG:  Solving for T, Initial residual = 0.000489012, Final residual = 1.96717e-09, No Iterations 5
DILUPBiCG:  Solving for T, Initial residual = 7.53882e-05, Final residual = 3.81172e-09, No Iterations 4
 T goes from min(T) [0 0 0 0 0 0 0] -0.297517 to max(T) [0 0 0 0 0 0 0] 0.867759

ExecutionTime = 73.39 s  ClockTime = 1189 s

Time = 3.05
Courant Number mean: 1.65097 max: 3.13102
DILUPBiCG:  Solving for T, Initial residual = 0.0787382, Final residual = 4.21052e-09, No Iterations 8
DILUPBiCG:  Solving for T, Initial residual = 0.00449864, Final residual = 9.80841e-09, No Iterations 5
DILUPBiCG:  Solving for T, Initial residual = 0.00048717, Final residual = 2.45577e-09, No Iterations 5
DILUPBiCG:  Solving for T, Initial residual = 7.57825e-05, Final residual = 4.34598e-09, No Iterations 4
 T goes from min(T) [0 0 0 0 0 0 0] -0.298601 to max(T) [0 0 0 0 0 0 0] 0.864209

ExecutionTime = 73.95 s  ClockTime = 1197 s

Time = 3.075
Courant Number mean: 1.66281 max: 3.17727
DILUPBiCG:  Solving for T, Initial residual = 0.0783865, Final residual = 9.39286e-09, No Iterations 7
DILUPBiCG:  Solving for T, Initial residual = 0.0044679, Final residual = 2.58317e-09, No Iterations 6
DILUPBiCG:  Solving for T, Initial residual = 0.000485029, Final residual = 2.79819e-09, No Iterations 5
DILUPBiCG:  Solving for T, Initial residual = 7.60498e-05, Final residual = 4.91526e-09, No Iterations 4
 T goes from min(T) [0 0 0 0 0 0 0] -0.300256 to max(T) [0 0 0 0 0 0 0] 0.867457

ExecutionTime = 74.51 s  ClockTime = 1204 s

Time = 3.1
Courant Number mean: 1.6763 max: 3.22272
DILUPBiCG:  Solving for T, Initial residual = 0.078012, Final residual = 1.81828e-09, No Iterations 8
DILUPBiCG:  Solving for T, Initial residual = 0.00443153, Final residual = 2.13769e-09, No Iterations 6
DILUPBiCG:  Solving for T, Initial residual = 0.000482563, Final residual = 3.01387e-09, No Iterations 5
DILUPBiCG:  Solving for T, Initial residual = 7.64031e-05, Final residual = 5.52503e-09, No Iterations 4
 T goes from min(T) [0 0 0 0 0 0 0] -0.301529 to max(T) [0 0 0 0 0 0 0] 0.864545

ExecutionTime = 75.06 s  ClockTime = 1211 s

Time = 3.125
Courant Number mean: 1.69102 max: 3.26709
DILUPBiCG:  Solving for T, Initial residual = 0.0776164, Final residual = 3.71228e-09, No Iterations 8
DILUPBiCG:  Solving for T, Initial residual = 0.00439034, Final residual = 4.33819e-10, No Iterations 7
DILUPBiCG:  Solving for T, Initial residual = 0.00048001, Final residual = 3.1525e-09, No Iterations 5
DILUPBiCG:  Solving for T, Initial residual = 7.68446e-05, Final residual = 6.16517e-09, No Iterations 4
 T goes from min(T) [0 0 0 0 0 0 0] -0.302363 to max(T) [0 0 0 0 0 0 0] 0.867406

ExecutionTime = 75.61 s  ClockTime = 1218 s

Time = 3.15
Courant Number mean: 1.70672 max: 3.31072
DILUPBiCG:  Solving for T, Initial residual = 0.0771642, Final residual = 4.61564e-10, No Iterations 9
DILUPBiCG:  Solving for T, Initial residual = 0.00434509, Final residual = 5.09165e-10, No Iterations 7
DILUPBiCG:  Solving for T, Initial residual = 0.000477398, Final residual = 3.34786e-09, No Iterations 5
DILUPBiCG:  Solving for T, Initial residual = 7.72873e-05, Final residual = 6.87204e-09, No Iterations 4
 T goes from min(T) [0 0 0 0 0 0 0] -0.302794 to max(T) [0 0 0 0 0 0 0] 0.864185

ExecutionTime = 76.16 s  ClockTime = 1226 s

Time = 3.175
Courant Number mean: 1.72323 max: 3.35318
DILUPBiCG:  Solving for T, Initial residual = 0.0766541, Final residual = 5.4445e-10, No Iterations 9
DILUPBiCG:  Solving for T, Initial residual = 0.00430578, Final residual = 7.82946e-10, No Iterations 7
DILUPBiCG:  Solving for T, Initial residual = 0.000475048, Final residual = 3.70636e-09, No Iterations 5
DILUPBiCG:  Solving for T, Initial residual = 7.77178e-05, Final residual = 7.76013e-09, No Iterations 4
 T goes from min(T) [0 0 0 0 0 0 0] -0.303679 to max(T) [0 0 0 0 0 0 0] 0.867728

ExecutionTime = 76.73 s  ClockTime = 1233 s

Time = 3.2
Courant Number mean: 1.74039 max: 3.39425
DILUPBiCG:  Solving for T, Initial residual = 0.0760926, Final residual = 5.40168e-09, No Iterations 8
DILUPBiCG:  Solving for T, Initial residual = 0.00427168, Final residual = 5.9311e-09, No Iterations 6
DILUPBiCG:  Solving for T, Initial residual = 0.000473259, Final residual = 4.14096e-09, No Iterations 5
DILUPBiCG:  Solving for T, Initial residual = 7.81546e-05, Final residual = 9.05335e-09, No Iterations 4
 T goes from min(T) [0 0 0 0 0 0 0] -0.304877 to max(T) [0 0 0 0 0 0 0] 0.863575

ExecutionTime = 77.28 s  ClockTime = 1240 s

Time = 3.225
Courant Number mean: 1.75809 max: 3.43401
DILUPBiCG:  Solving for T, Initial residual = 0.0755444, Final residual = 6.80216e-10, No Iterations 9
DILUPBiCG:  Solving for T, Initial residual = 0.00423479, Final residual = 6.48766e-09, No Iterations 6
DILUPBiCG:  Solving for T, Initial residual = 0.000469736, Final residual = 4.58752e-09, No Iterations 5
DILUPBiCG:  Solving for T, Initial residual = 7.80987e-05, Final residual = 2.06619e-09, No Iterations 5
 T goes from min(T) [0 0 0 0 0 0 0] -0.305483 to max(T) [0 0 0 0 0 0 0] 0.868

ExecutionTime = 77.83 s  ClockTime = 1247 s

Time = 3.25
Courant Number mean: 1.77621 max: 3.4731
DILUPBiCG:  Solving for T, Initial residual = 0.074992, Final residual = 5.9493e-09, No Iterations 8
DILUPBiCG:  Solving for T, Initial residual = 0.00419458, Final residual = 6.67592e-09, No Iterations 6
DILUPBiCG:  Solving for T, Initial residual = 0.000464558, Final residual = 5.12067e-09, No Iterations 5
DILUPBiCG:  Solving for T, Initial residual = 7.75886e-05, Final residual = 1.85559e-09, No Iterations 5
 T goes from min(T) [0 0 0 0 0 0 0] -0.306571 to max(T) [0 0 0 0 0 0 0] 0.865401

ExecutionTime = 78.39 s  ClockTime = 1254 s

Time = 3.275
Courant Number mean: 1.79467 max: 3.51065
DILUPBiCG:  Solving for T, Initial residual = 0.0743714, Final residual = 9.84733e-09, No Iterations 8
DILUPBiCG:  Solving for T, Initial residual = 0.00415017, Final residual = 7.65514e-09, No Iterations 6
DILUPBiCG:  Solving for T, Initial residual = 0.000458304, Final residual = 6.06541e-09, No Iterations 5
DILUPBiCG:  Solving for T, Initial residual = 7.66364e-05, Final residual = 1.3339e-09, No Iterations 5
 T goes from min(T) [0 0 0 0 0 0 0] -0.307466 to max(T) [0 0 0 0 0 0 0] 0.866769

ExecutionTime = 78.93 s  ClockTime = 1260 s

Time = 3.3
Courant Number mean: 1.81336 max: 3.54658
DILUPBiCG:  Solving for T, Initial residual = 0.0737035, Final residual = 9.30283e-09, No Iterations 9
DILUPBiCG:  Solving for T, Initial residual = 0.00410177, Final residual = 1.46817e-09, No Iterations 7
DILUPBiCG:  Solving for T, Initial residual = 0.000450625, Final residual = 7.4455e-09, No Iterations 5
[...]
DILUPBiCG:  Solving for T, Initial residual = 9.66095e-05, Final residual = 6.57602e-09, No Iterations 6
 T goes from min(T) [0 0 0 0 0 0 0] -0.328796 to max(T) [0 0 0 0 0 0 0] 0.848855

ExecutionTime = 120.78 s  ClockTime = 1663 s

Time = 5.2
Courant Number mean: 1.78096 max: 5.43494
DILUPBiCG:  Solving for T, Initial residual = 0.0444116, Final residual = 2.26212e-09, No Iterations 10
DILUPBiCG:  Solving for T, Initial residual = 0.00278641, Final residual = 3.39213e-09, No Iterations 8
DILUPBiCG:  Solving for T, Initial residual = 0.00038526, Final residual = 5.22799e-09, No Iterations 7
DILUPBiCG:  Solving for T, Initial residual = 9.17746e-05, Final residual = 3.98245e-09, No Iterations 7
 T goes from min(T) [0 0 0 0 0 0 0] -0.322733 to max(T) [0 0 0 0 0 0 0] 0.848357

ExecutionTime = 121.31 s  ClockTime = 1668 s

Time = 5.225
Courant Number mean: 1.79137 max: 5.44545
DILUPBiCG:  Solving for T, Initial residual = 0.0445904, Final residual = 2.85798e-09, No Iterations 10
DILUPBiCG:  Solving for T, Initial residual = 0.00282755, Final residual = 5.33324e-09, No Iterations 8
DILUPBiCG:  Solving for T, Initial residual = 0.000384341, Final residual = 3.87817e-09, No Iterations 7
DILUPBiCG:  Solving for T, Initial residual = 8.848e-05, Final residual = 9.22407e-09, No Iterations 6
 T goes from min(T) [0 0 0 0 0 0 0] -0.319454 to max(T) [0 0 0 0 0 0 0] 0.848281

ExecutionTime = 121.87 s  ClockTime = 1673 s

Time = 5.25
Courant Number mean: 1.80223 max: 5.44742
DILUPBiCG:  Solving for T, Initial residual = 0.0447804, Final residual = 2.72142e-09, No Iterations 10
DILUPBiCG:  Solving for T, Initial residual = 0.00288062, Final residual = 7.10423e-09, No Iterations 8
DILUPBiCG:  Solving for T, Initial residual = 0.000391868, Final residual = 9.88142e-09, No Iterations 7
DILUPBiCG:  Solving for T, Initial residual = 8.83164e-05, Final residual = 2.83044e-09, No Iterations 7
 T goes from min(T) [0 0 0 0 0 0 0] -0.316199 to max(T) [0 0 0 0 0 0 0] 0.848015

ExecutionTime = 122.43 s  ClockTime = 1678 s

Time = 5.275
Courant Number mean: 1.81342 max: 5.44255
DILUPBiCG:  Solving for T, Initial residual = 0.0450002, Final residual = 1.61911e-09, No Iterations 10
DILUPBiCG:  Solving for T, Initial residual = 0.00295108, Final residual = 1.16244e-09, No Iterations 9
DILUPBiCG:  Solving for T, Initial residual = 0.00040144, Final residual = 6.16614e-09, No Iterations 7
DILUPBiCG:  Solving for T, Initial residual = 9.00238e-05, Final residual = 3.13012e-09, No Iterations 7
 T goes from min(T) [0 0 0 0 0 0 0] -0.30933 to max(T) [0 0 0 0 0 0 0] 0.847916

ExecutionTime = 122.98 s  ClockTime = 1683 s

Time = 5.3
Courant Number mean: 1.82489 max: 5.43319
DILUPBiCG:  Solving for T, Initial residual = 0.0452425, Final residual = 1.57845e-09, No Iterations 10
DILUPBiCG:  Solving for T, Initial residual = 0.00301913, Final residual = 1.29873e-09, No Iterations 9
DILUPBiCG:  Solving for T, Initial residual = 0.000411425, Final residual = 4.1073e-09, No Iterations 7
DILUPBiCG:  Solving for T, Initial residual = 9.15738e-05, Final residual = 1.08055e-09, No Iterations 7
 T goes from min(T) [0 0 0 0 0 0 0] -0.308022 to max(T) [0 0 0 0 0 0 0] 0.847375

ExecutionTime = 123.55 s  ClockTime = 1689 s

Time = 5.325
Courant Number mean: 1.83653 max: 5.42273
DILUPBiCG:  Solving for T, Initial residual = 0.0455551, Final residual = 1.64137e-09, No Iterations 11
DILUPBiCG:  Solving for T, Initial residual = 0.00309682, Final residual = 1.52718e-09, No Iterations 9
DILUPBiCG:  Solving for T, Initial residual = 0.000422472, Final residual = 5.21974e-09, No Iterations 7
DILUPBiCG:  Solving for T, Initial residual = 9.29269e-05, Final residual = 9.0768e-10, No Iterations 7
 T goes from min(T) [0 0 0 0 0 0 0] -0.303112 to max(T) [0 0 0 0 0 0 0] 0.846153

ExecutionTime = 124.11 s  ClockTime = 1694 s

Time = 5.35
Courant Number mean: 1.84831 max: 5.40946
DILUPBiCG:  Solving for T, Initial residual = 0.0458914, Final residual = 3.37113e-09, No Iterations 10
DILUPBiCG:  Solving for T, Initial residual = 0.00318448, Final residual = 7.59994e-09, No Iterations 8
DILUPBiCG:  Solving for T, Initial residual = 0.000435255, Final residual = 4.55349e-09, No Iterations 7
DILUPBiCG:  Solving for T, Initial residual = 9.41511e-05, Final residual = 1.08938e-09, No Iterations 7
 T goes from min(T) [0 0 0 0 0 0 0] -0.298409 to max(T) [0 0 0 0 0 0 0] 0.846069

ExecutionTime = 124.67 s  ClockTime = 1699 s

Time = 5.375
Courant Number mean: 1.86019 max: 5.39493
DILUPBiCG:  Solving for T, Initial residual = 0.0463228, Final residual = 2.84836e-09, No Iterations 10
DILUPBiCG:  Solving for T, Initial residual = 0.00327753, Final residual = 8.97899e-09, No Iterations 8
DILUPBiCG:  Solving for T, Initial residual = 0.000450928, Final residual = 3.47744e-09, No Iterations 7
DILUPBiCG:  Solving for T, Initial residual = 9.58821e-05, Final residual = 6.55252e-09, No Iterations 6
 T goes from min(T) [0 0 0 0 0 0 0] -0.29605 to max(T) [0 0 0 0 0 0 0] 0.846206

ExecutionTime = 125.23 s  ClockTime = 1704 s

Time = 5.4
Courant Number mean: 1.87213 max: 5.37871
DILUPBiCG:  Solving for T, Initial residual = 0.0467704, Final residual = 1.31158e-09, No Iterations 11
DILUPBiCG:  Solving for T, Initial residual = 0.00338402, Final residual = 6.16186e-09, No Iterations 8
DILUPBiCG:  Solving for T, Initial residual = 0.000466914, Final residual = 1.96774e-09, No Iterations 7
DILUPBiCG:  Solving for T, Initial residual = 9.81154e-05, Final residual = 3.00298e-09, No Iterations 6
 T goes from min(T) [0 0 0 0 0 0 0] -0.292407 to max(T) [0 0 0 0 0 0 0] 0.846063

ExecutionTime = 125.8 s  ClockTime = 1709 s

Time = 5.425
Courant Number mean: 1.88407 max: 5.35978
DILUPBiCG:  Solving for T, Initial residual = 0.0472805, Final residual = 1.43144e-09, No Iterations 11
DILUPBiCG:  Solving for T, Initial residual = 0.00349725, Final residual = 1.22599e-09, No Iterations 9
DILUPBiCG:  Solving for T, Initial residual = 0.000485432, Final residual = 6.2582e-09, No Iterations 7
DILUPBiCG:  Solving for T, Initial residual = 0.000100796, Final residual = 2.29828e-09, No Iterations 6
 T goes from min(T) [0 0 0 0 0 0 0] -0.293917 to max(T) [0 0 0 0 0 0 0] 0.845425

ExecutionTime = 126.36 s  ClockTime = 1714 s

Time = 5.45
Courant Number mean: 1.89595 max: 5.33992
DILUPBiCG:  Solving for T, Initial residual = 0.0478256, Final residual = 9.18614e-10, No Iterations 11
DILUPBiCG:  Solving for T, Initial residual = 0.00361889, Final residual = 8.37414e-10, No Iterations 9
DILUPBiCG:  Solving for T, Initial residual = 0.00050508, Final residual = 8.49561e-10, No Iterations 8
DILUPBiCG:  Solving for T, Initial residual = 0.000103584, Final residual = 8.97054e-09, No Iterations 6
 T goes from min(T) [0 0 0 0 0 0 0] -0.292295 to max(T) [0 0 0 0 0 0 0] 0.84492

ExecutionTime = 126.93 s  ClockTime = 1719 s

Time = 5.475
Courant Number mean: 1.90777 max: 5.31814
DILUPBiCG:  Solving for T, Initial residual = 0.0484288, Final residual = 3.74858e-09, No Iterations 10
DILUPBiCG:  Solving for T, Initial residual = 0.00374575, Final residual = 6.13716e-10, No Iterations 9
DILUPBiCG:  Solving for T, Initial residual = 0.000529141, Final residual = 3.92909e-09, No Iterations 7
DILUPBiCG:  Solving for T, Initial residual = 0.000108134, Final residual = 8.61927e-09, No Iterations 5
 T goes from min(T) [0 0 0 0 0 0 0] -0.289356 to max(T) [0 0 0 0 0 0 0] 0.844725

ExecutionTime = 127.47 s  ClockTime = 1724 s

Time = 5.5
Courant Number mean: 1.91952 max: 5.29394
DILUPBiCG:  Solving for T, Initial residual = 0.0490866, Final residual = 1.8888e-09, No Iterations 11
DILUPBiCG:  Solving for T, Initial residual = 0.00388132, Final residual = 6.28665e-09, No Iterations 8
DILUPBiCG:  Solving for T, Initial residual = 0.000556835, Final residual = 2.32623e-09, No Iterations 7
DILUPBiCG:  Solving for T, Initial residual = 0.000113421, Final residual = 8.94462e-09, No Iterations 5
 T goes from min(T) [0 0 0 0 0 0 0] -0.288558 to max(T) [0 0 0 0 0 0 0] 0.844494

ExecutionTime = 128.02 s  ClockTime = 1729 s

Time = 5.525
Courant Number mean: 1.93114 max: 5.26904
DILUPBiCG:  Solving for T, Initial residual = 0.0497764, Final residual = 2.86091e-09, No Iterations 10
DILUPBiCG:  Solving for T, Initial residual = 0.00401489, Final residual = 3.98266e-09, No Iterations 8
DILUPBiCG:  Solving for T, Initial residual = 0.000585004, Final residual = 1.5891e-09, No Iterations 7
DILUPBiCG:  Solving for T, Initial residual = 0.000119388, Final residual = 8.7157e-09, No Iterations 5
 T goes from min(T) [0 0 0 0 0 0 0] -0.29029 to max(T) [0 0 0 0 0 0 0] 0.844106

ExecutionTime = 128.58 s  ClockTime = 1734 s

Time = 5.55
Courant Number mean: 1.94259 max: 5.24163
DILUPBiCG:  Solving for T, Initial residual = 0.0505048, Final residual = 2.85863e-09, No Iterations 10
DILUPBiCG:  Solving for T, Initial residual = 0.00414674, Final residual = 2.44883e-09, No Iterations 8
DILUPBiCG:  Solving for T, Initial residual = 0.000615419, Final residual = 1.4073e-09, No Iterations 7
DILUPBiCG:  Solving for T, Initial residual = 0.000125896, Final residual = 3.04705e-09, No Iterations 6
 T goes from min(T) [0 0 0 0 0 0 0] -0.290602 to max(T) [0 0 0 0 0 0 0] 0.841708

ExecutionTime = 129.14 s  ClockTime = 1739 s

Time = 5.575
Courant Number mean: 1.95388 max: 5.21341
DILUPBiCG:  Solving for T, Initial residual = 0.0512605, Final residual = 2.16921e-09, No Iterations 10
DILUPBiCG:  Solving for T, Initial residual = 0.00427674, Final residual = 1.72174e-09, No Iterations 8
DILUPBiCG:  Solving for T, Initial residual = 0.000646715, Final residual = 9.53676e-09, No Iterations 6
DILUPBiCG:  Solving for T, Initial residual = 0.000133378, Final residual = 1.90366e-09, No Iterations 6
 T goes from min(T) [0 0 0 0 0 0 0] -0.289865 to max(T) [0 0 0 0 0 0 0] 0.840541

ExecutionTime = 129.68 s  ClockTime = 1744 s

Time = 5.6
Courant Number mean: 1.96498 max: 5.18339
DILUPBiCG:  Solving for T, Initial residual = 0.0520506, Final residual = 1.08784e-09, No Iterations 10
DILUPBiCG:  Solving for T, Initial residual = 0.00441319, Final residual = 1.54191e-09, No Iterations 8
DILUPBiCG:  Solving for T, Initial residual = 0.00067911, Final residual = 7.02425e-09, No Iterations 6
DILUPBiCG:  Solving for T, Initial residual = 0.000142836, Final residual = 1.34984e-09, No Iterations 6
 T goes from min(T) [0 0 0 0 0 0 0] -0.289776 to max(T) [0 0 0 0 0 0 0] 0.842399

ExecutionTime = 130.23 s  ClockTime = 1749 s

Time = 5.625
Courant Number mean: 1.97589 max: 5.15099
DILUPBiCG:  Solving for T, Initial residual = 0.0528553, Final residual = 9.6845e-09, No Iterations 9
DILUPBiCG:  Solving for T, Initial residual = 0.00455015, Final residual = 1.74611e-09, No Iterations 8
DILUPBiCG:  Solving for T, Initial residual = 0.000715532, Final residual = 6.02667e-09, No Iterations 6
DILUPBiCG:  Solving for T, Initial residual = 0.000152056, Final residual = 1.18469e-09, No Iterations 6
 T goes from min(T) [0 0 0 0 0 0 0] -0.289152 to max(T) [0 0 0 0 0 0 0] 0.841092

ExecutionTime = 130.79 s  ClockTime = 1754 s

Time = 5.65
Courant Number mean: 1.98657 max: 5.11748
DILUPBiCG:  Solving for T, Initial residual = 0.0537091, Final residual = 1.13579e-09, No Iterations 10
DILUPBiCG:  Solving for T, Initial residual = 0.00469042, Final residual = 2.64825e-09, No Iterations 8
DILUPBiCG:  Solving for T, Initial residual = 0.000751912, Final residual = 5.6369e-09, No Iterations 6
DILUPBiCG:  Solving for T, Initial residual = 0.00016184, Final residual = 1.17672e-09, No Iterations 6
 T goes from min(T) [0 0 0 0 0 0 0] -0.288362 to max(T) [0 0 0 0 0 0 0] 0.839357

ExecutionTime = 131.35 s  ClockTime = 1759 s

Time = 5.675
Courant Number mean: 1.99698 max: 5.08267
DILUPBiCG:  Solving for T, Initial residual = 0.0545812, Final residual = 6.38152e-09, No Iterations 9
DILUPBiCG:  Solving for T, Initial residual = 0.00483167, Final residual = 4.51868e-09, No Iterations 8
DILUPBiCG:  Solving for T, Initial residual = 0.000787989, Final residual = 5.86879e-09, No Iterations 6
DILUPBiCG:  Solving for T, Initial residual = 0.000172944, Final residual = 7.35254e-09, No Iterations 5
 T goes from min(T) [0 0 0 0 0 0 0] -0.286125 to max(T) [0 0 0 0 0 0 0] 0.837001

ExecutionTime = 131.91 s  ClockTime = 1764 s

Time = 5.7
Courant Number mean: 2.00714 max: 5.04563
DILUPBiCG:  Solving for T, Initial residual = 0.055477, Final residual = 4.4105e-09, No Iterations 9
DILUPBiCG:  Solving for T, Initial residual = 0.00499143, Final residual = 4.41522e-09, No Iterations 8
DILUPBiCG:  Solving for T, Initial residual = 0.000826757, Final residual = 7.8626e-09, No Iterations 6
DILUPBiCG:  Solving for T, Initial residual = 0.000183876, Final residual = 8.60769e-09, No Iterations 5
 T goes from min(T) [0 0 0 0 0 0 0] -0.285154 to max(T) [0 0 0 0 0 0 0] 0.830435

ExecutionTime = 132.45 s  ClockTime = 1769 s

Time = 5.725
Courant Number mean: 2.01705 max: 5.00703
DILUPBiCG:  Solving for T, Initial residual = 0.0563341, Final residual = 3.711e-09, No Iterations 9
DILUPBiCG:  Solving for T, Initial residual = 0.00515437, Final residual = 3.67526e-10, No Iterations 9
DILUPBiCG:  Solving for T, Initial residual = 0.000869912, Final residual = 3.70718e-09, No Iterations 7
DILUPBiCG:  Solving for T, Initial residual = 0.000197673, Final residual = 7.48695e-09, No Iterations 5
 T goes from min(T) [0 0 0 0 0 0 0] -0.282762 to max(T) [0 0 0 0 0 0 0] 0.823549

ExecutionTime = 133 s  ClockTime = 1774 s

Time = 5.75
Courant Number mean: 2.02664 max: 4.96781
DILUPBiCG:  Solving for T, Initial residual = 0.0572667, Final residual = 2.83507e-09, No Iterations 9
DILUPBiCG:  Solving for T, Initial residual = 0.00534567, Final residual = 7.13844e-09, No Iterations 8
DILUPBiCG:  Solving for T, Initial residual = 0.000922065, Final residual = 8.53412e-09, No Iterations 6
DILUPBiCG:  Solving for T, Initial residual = 0.000214305, Final residual = 6.09288e-09, No Iterations 5
 T goes from min(T) [0 0 0 0 0 0 0] -0.28058 to max(T) [0 0 0 0 0 0 0] 0.817925

ExecutionTime = 133.56 s  ClockTime = 1779 s

Time = 5.775
Courant Number mean: 2.03591 max: 4.92655
DILUPBiCG:  Solving for T, Initial residual = 0.0582243, Final residual = 4.39114e-09, No Iterations 9
DILUPBiCG:  Solving for T, Initial residual = 0.00554794, Final residual = 5.81199e-10, No Iterations 9
DILUPBiCG:  Solving for T, Initial residual = 0.00097631, Final residual = 7.5758e-09, No Iterations 6
DILUPBiCG:  Solving for T, Initial residual = 0.000230515, Final residual = 8.40968e-09, No Iterations 5
 T goes from min(T) [0 0 0 0 0 0 0] -0.277607 to max(T) [0 0 0 0 0 0 0] 0.813283

ExecutionTime = 134.1 s  ClockTime = 1784 s

Time = 5.8
Courant Number mean: 2.04485 max: 4.88332
DILUPBiCG:  Solving for T, Initial residual = 0.0591308, Final residual = 3.12932e-09, No Iterations 9
DILUPBiCG:  Solving for T, Initial residual = 0.0057551, Final residual = 7.73704e-09, No Iterations 7
DILUPBiCG:  Solving for T, Initial residual = 0.00103733, Final residual = 4.90879e-09, No Iterations 6
DILUPBiCG:  Solving for T, Initial residual = 0.000251978, Final residual = 1.0808e-09, No Iterations 6
 T goes from min(T) [0 0 0 0 0 0 0] -0.276644 to max(T) [0 0 0 0 0 0 0] 0.810452

ExecutionTime = 134.65 s  ClockTime = 1788 s

Time = 5.825
Courant Number mean: 2.05346 max: 4.83995
DILUPBiCG:  Solving for T, Initial residual = 0.0600102, Final residual = 2.52386e-09, No Iterations 9
DILUPBiCG:  Solving for T, Initial residual = 0.00599234, Final residual = 5.3387e-09, No Iterations 7
DILUPBiCG:  Solving for T, Initial residual = 0.00111341, Final residual = 5.3697e-09, No Iterations 6
DILUPBiCG:  Solving for T, Initial residual = 0.000277154, Final residual = 1.21617e-09, No Iterations 6
 T goes from min(T) [0 0 0 0 0 0 0] -0.276229 to max(T) [0 0 0 0 0 0 0] 0.808389

ExecutionTime = 135.2 s  ClockTime = 1793 s

Time = 5.85
Courant Number mean: 2.06166 max: 4.7949
DILUPBiCG:  Solving for T, Initial residual = 0.060927, Final residual = 2.24795e-09, No Iterations 9
DILUPBiCG:  Solving for T, Initial residual = 0.00622728, Final residual = 5.71396e-09, No Iterations 7
DILUPBiCG:  Solving for T, Initial residual = 0.00118763, Final residual = 6.14014e-09, No Iterations 6
DILUPBiCG:  Solving for T, Initial residual = 0.000305763, Final residual = 1.22836e-09, No Iterations 6
 T goes from min(T) [0 0 0 0 0 0 0] -0.274853 to max(T) [0 0 0 0 0 0 0] 0.804939

ExecutionTime = 135.74 s  ClockTime = 1798 s

Time = 5.875
Courant Number mean: 2.06946 max: 4.74884
DILUPBiCG:  Solving for T, Initial residual = 0.0618296, Final residual = 2.78304e-09, No Iterations 9
DILUPBiCG:  Solving for T, Initial residual = 0.00644625, Final residual = 6.75314e-09, No Iterations 7
DILUPBiCG:  Solving for T, Initial residual = 0.00126855, Final residual = 6.77288e-09, No Iterations 6
DILUPBiCG:  Solving for T, Initial residual = 0.000330761, Final residual = 1.5167e-09, No Iterations 6
 T goes from min(T) [0 0 0 0 0 0 0] -0.27349 to max(T) [0 0 0 0 0 0 0] 0.80227

ExecutionTime = 136.3 s  ClockTime = 1803 s

Time = 5.9
Courant Number mean: 2.07682 max: 4.70195
DILUPBiCG:  Solving for T, Initial residual = 0.0627358, Final residual = 9.32795e-09, No Iterations 8
DILUPBiCG:  Solving for T, Initial residual = 0.00666989, Final residual = 7.04961e-09, No Iterations 7
DILUPBiCG:  Solving for T, Initial residual = 0.00134249, Final residual = 7.19198e-09, No Iterations 6
DILUPBiCG:  Solving for T, Initial residual = 0.000358723, Final residual = 2.01436e-09, No Iterations 6
 T goes from min(T) [0 0 0 0 0 0 0] -0.27061 to max(T) [0 0 0 0 0 0 0] 0.80027

ExecutionTime = 136.84 s  ClockTime = 1808 s

Time = 5.925
Courant Number mean: 2.08372 max: 4.6534
DILUPBiCG:  Solving for T, Initial residual = 0.0634766, Final residual = 3.17229e-09, No Iterations 9
DILUPBiCG:  Solving for T, Initial residual = 0.00684591, Final residual = 7.29105e-09, No Iterations 7
DILUPBiCG:  Solving for T, Initial residual = 0.0014081, Final residual = 6.49041e-09, No Iterations 6
DILUPBiCG:  Solving for T, Initial residual = 0.000384377, Final residual = 5.33894e-09, No Iterations 5
 T goes from min(T) [0 0 0 0 0 0 0] -0.269559 to max(T) [0 0 0 0 0 0 0] 0.797635

ExecutionTime = 137.38 s  ClockTime = 1813 s

Time = 5.95
Courant Number mean: 2.09009 max: 4.60342
DILUPBiCG:  Solving for T, Initial residual = 0.0643815, Final residual = 2.65277e-09, No Iterations 9
DILUPBiCG:  Solving for T, Initial residual = 0.00700878, Final residual = 5.46218e-09, No Iterations 7
DILUPBiCG:  Solving for T, Initial residual = 0.00145833, Final residual = 4.66413e-09, No Iterations 6
DILUPBiCG:  Solving for T, Initial residual = 0.000403709, Final residual = 5.12696e-09, No Iterations 5
 T goes from min(T) [0 0 0 0 0 0 0] -0.2676 to max(T) [0 0 0 0 0 0 0] 0.79636

ExecutionTime = 137.92 s  ClockTime = 1818 s

Time = 5.975
Courant Number mean: 2.09589 max: 4.55354
DILUPBiCG:  Solving for T, Initial residual = 0.0651054, Final residual = 3.12297e-09, No Iterations 9
DILUPBiCG:  Solving for T, Initial residual = 0.00712371, Final residual = 6.95633e-09, No Iterations 7
DILUPBiCG:  Solving for T, Initial residual = 0.00149904, Final residual = 9.45128e-09, No Iterations 6
DILUPBiCG:  Solving for T, Initial residual = 0.00041506, Final residual = 7.45632e-09, No Iterations 5
 T goes from min(T) [0 0 0 0 0 0 0] -0.265754 to max(T) [0 0 0 0 0 0 0] 0.796404

ExecutionTime = 138.46 s  ClockTime = 1823 s

Time = 6
Courant Number mean: 2.10109 max: 4.50219
DILUPBiCG:  Solving for T, Initial residual = 0.0658639, Final residual = 2.8221e-09, No Iterations 9
DILUPBiCG:  Solving for T, Initial residual = 0.00721616, Final residual = 6.34134e-09, No Iterations 7
DILUPBiCG:  Solving for T, Initial residual = 0.00151236, Final residual = 7.96605e-09, No Iterations 6
DILUPBiCG:  Solving for T, Initial residual = 0.000420884, Final residual = 1.2557e-09, No Iterations 6
 T goes from min(T) [0 0 0 0 0 0 0] -0.263405 to max(T) [0 0 0 0 0 0 0] 0.795873

ExecutionTime = 139.01 s  ClockTime = 1828 s

End

